INFO:__main__:Running command: java -jar "C:/Users/aleja/Downloads/TreeCmp_v1.0-b291/TreeCmp/bin/TreeCmp.jar" -r "C:/Users/aleja/OneDrive - Karolinska Institutet/Documentos/JOBS/Liquenes/Lichens_project/Sticta/co-divergence/Reviewed\ht.newick" -d rc -i "C:/Users/aleja/OneDrive - Karolinska Institutet/Documentos/JOBS/Liquenes/Lichens_project/Sticta/co-divergence/Reviewed\mt.newick" -o "C:/Users/aleja/OneDrive - Karolinska Institutet/Documentos/JOBS/Liquenes/Lichens_project/Sticta/co-divergence/Reviewed\compare_rc\compare_ht_mt.txt" -N
INFO:__main__:Command output: TreeCmp version 1.0-b291

Active options:
Type of the analysis:  one-to-all comparison mode (-r)
Metrics:
  1. R-F_Cluster (rc)
Input file: C:/Users/aleja/OneDrive - Karolinska Institutet/Documentos/JOBS/Liquenes/Lichens_project/Sticta/co-divergence/Reviewed\mt.newick
Output file: C:/Users/aleja/OneDrive - Karolinska Institutet/Documentos/JOBS/Liquenes/Lichens_project/Sticta/co-divergence/Reviewed\compare_rc\compare_ht_mt.txt
Additional options:
N - Report normalized distances.
-----
2024-06-22 13:29:35: Start of reading random statistics.
2024-06-22 13:29:35: End of reading random statistics.
2024-06-22 13:29:35: Start of scanning input file: C:/Users/aleja/OneDrive - Karolinska Institutet/Documentos/JOBS/Liquenes/Lichens_project/Sticta/co-divergence/Reviewed\mt.newick
2024-06-22 13:29:35: End of scanning input file: C:/Users/aleja/OneDrive - Karolinska Institutet/Documentos/JOBS/Liquenes/Lichens_project/Sticta/co-divergence/Reviewed\mt.newick
2024-06-22 13:29:35: 1 valid trees found in file: C:/Users/aleja/OneDrive - Karolinska Institutet/Documentos/JOBS/Liquenes/Lichens_project/Sticta/co-divergence/Reviewed\mt.newick
2024-06-22 13:29:35: Start of calculation...please wait...
2024-06-22 13:29:35: 0.00% completed...
2024-06-22 13:29:35: 100.00% completed.
2024-06-22 13:29:35: End of calculation.
2024-06-22 13:29:35: Total calculation time: 12 ms.

ERROR:__main__:Command error: 
INFO:__main__:Running command: java -jar "C:/Users/aleja/Downloads/TreeCmp_v1.0-b291/TreeCmp/bin/TreeCmp.jar" -r "C:/Users/aleja/OneDrive - Karolinska Institutet/Documentos/JOBS/Liquenes/Lichens_project/Sticta/co-divergence/Reviewed\ht.newick" -d rc -i "C:/Users/aleja/OneDrive - Karolinska Institutet/Documentos/JOBS/Liquenes/Lichens_project/Sticta/co-divergence/Reviewed\random_trees.newick" -o "C:/Users/aleja/OneDrive - Karolinska Institutet/Documentos/JOBS/Liquenes/Lichens_project/Sticta/co-divergence/Reviewed\compare_rc\compare_ht_random.txt" -N
INFO:__main__:Command output: TreeCmp version 1.0-b291

Active options:
Type of the analysis:  one-to-all comparison mode (-r)
Metrics:
  1. R-F_Cluster (rc)
Input file: C:/Users/aleja/OneDrive - Karolinska Institutet/Documentos/JOBS/Liquenes/Lichens_project/Sticta/co-divergence/Reviewed\random_trees.newick
Output file: C:/Users/aleja/OneDrive - Karolinska Institutet/Documentos/JOBS/Liquenes/Lichens_project/Sticta/co-divergence/Reviewed\compare_rc\compare_ht_random.txt
Additional options:
N - Report normalized distances.
-----
2024-06-22 13:29:35: Start of reading random statistics.
2024-06-22 13:29:36: End of reading random statistics.
2024-06-22 13:29:36: Start of scanning input file: C:/Users/aleja/OneDrive - Karolinska Institutet/Documentos/JOBS/Liquenes/Lichens_project/Sticta/co-divergence/Reviewed\random_trees.newick
2024-06-22 13:29:36: End of scanning input file: C:/Users/aleja/OneDrive - Karolinska Institutet/Documentos/JOBS/Liquenes/Lichens_project/Sticta/co-divergence/Reviewed\random_trees.newick
2024-06-22 13:29:36: 10000 valid trees found in file: C:/Users/aleja/OneDrive - Karolinska Institutet/Documentos/JOBS/Liquenes/Lichens_project/Sticta/co-divergence/Reviewed\random_trees.newick
2024-06-22 13:29:36: Start of calculation...please wait...
2024-06-22 13:29:36: 0.00% completed...
2024-06-22 13:29:36: 5.00% completed...
2024-06-22 13:29:36: 10.00% completed...
2024-06-22 13:29:36: 15.00% completed...
2024-06-22 13:29:36: 20.00% completed...
2024-06-22 13:29:36: 25.00% completed...
2024-06-22 13:29:36: 30.00% completed...
2024-06-22 13:29:36: 35.00% completed...
2024-06-22 13:29:36: 40.00% completed...
2024-06-22 13:29:36: 45.00% completed...
2024-06-22 13:29:36: 50.00% completed...
2024-06-22 13:29:36: 55.00% completed...
2024-06-22 13:29:36: 60.00% completed...
2024-06-22 13:29:36: 65.00% completed...
2024-06-22 13:29:36: 70.00% completed...
2024-06-22 13:29:36: 75.00% completed...
2024-06-22 13:29:36: 80.00% completed...
2024-06-22 13:29:36: 85.00% completed...
2024-06-22 13:29:36: 90.00% completed...
2024-06-22 13:29:36: 95.00% completed...
2024-06-22 13:29:36: 100.00% completed.
2024-06-22 13:29:36: End of calculation.
2024-06-22 13:29:36: Total calculation time: 429 ms.

ERROR:__main__:Command error: 
INFO:__main__: --- METHOD: Rooted Robinson-Foulds --- 
INFO:__main__:Host-Microbe Score:   4.5
INFO:__main__:Max Stochastic Metric: 4.5
INFO:__main__:Normalized Score: 1.0
INFO:__main__:Random Trees with Equivalent or More Congruent Score: 10000
INFO:__main__:Total Trees: 10000
INFO:__main__:P-Value: 1.0

INFO:__main__:Running command: java -jar "C:/Users/aleja/Downloads/TreeCmp_v1.0-b291/TreeCmp/bin/TreeCmp.jar" -r "C:/Users/aleja/OneDrive - Karolinska Institutet/Documentos/JOBS/Liquenes/Lichens_project/Sticta/co-divergence/Reviewed\ht.newick" -d mc -i "C:/Users/aleja/OneDrive - Karolinska Institutet/Documentos/JOBS/Liquenes/Lichens_project/Sticta/co-divergence/Reviewed\mt.newick" -o "C:/Users/aleja/OneDrive - Karolinska Institutet/Documentos/JOBS/Liquenes/Lichens_project/Sticta/co-divergence/Reviewed\compare_mc\compare_ht_mt.txt" -N
INFO:__main__:Command output: TreeCmp version 1.0-b291

Active options:
Type of the analysis:  one-to-all comparison mode (-r)
Metrics:
  1. MatchingCluster (mc)
Input file: C:/Users/aleja/OneDrive - Karolinska Institutet/Documentos/JOBS/Liquenes/Lichens_project/Sticta/co-divergence/Reviewed\mt.newick
Output file: C:/Users/aleja/OneDrive - Karolinska Institutet/Documentos/JOBS/Liquenes/Lichens_project/Sticta/co-divergence/Reviewed\compare_mc\compare_ht_mt.txt
Additional options:
N - Report normalized distances.
-----
2024-06-22 13:29:37: Start of reading random statistics.
2024-06-22 13:29:37: End of reading random statistics.
2024-06-22 13:29:37: Start of scanning input file: C:/Users/aleja/OneDrive - Karolinska Institutet/Documentos/JOBS/Liquenes/Lichens_project/Sticta/co-divergence/Reviewed\mt.newick
2024-06-22 13:29:37: End of scanning input file: C:/Users/aleja/OneDrive - Karolinska Institutet/Documentos/JOBS/Liquenes/Lichens_project/Sticta/co-divergence/Reviewed\mt.newick
2024-06-22 13:29:37: 1 valid trees found in file: C:/Users/aleja/OneDrive - Karolinska Institutet/Documentos/JOBS/Liquenes/Lichens_project/Sticta/co-divergence/Reviewed\mt.newick
2024-06-22 13:29:37: Start of calculation...please wait...
2024-06-22 13:29:37: 0.00% completed...
2024-06-22 13:29:37: 100.00% completed.
2024-06-22 13:29:37: End of calculation.
2024-06-22 13:29:37: Total calculation time: 16 ms.

ERROR:__main__:Command error: 
INFO:__main__:Running command: java -jar "C:/Users/aleja/Downloads/TreeCmp_v1.0-b291/TreeCmp/bin/TreeCmp.jar" -r "C:/Users/aleja/OneDrive - Karolinska Institutet/Documentos/JOBS/Liquenes/Lichens_project/Sticta/co-divergence/Reviewed\ht.newick" -d mc -i "C:/Users/aleja/OneDrive - Karolinska Institutet/Documentos/JOBS/Liquenes/Lichens_project/Sticta/co-divergence/Reviewed\random_trees.newick" -o "C:/Users/aleja/OneDrive - Karolinska Institutet/Documentos/JOBS/Liquenes/Lichens_project/Sticta/co-divergence/Reviewed\compare_mc\compare_ht_random.txt" -N
INFO:__main__:Command output: TreeCmp version 1.0-b291

Active options:
Type of the analysis:  one-to-all comparison mode (-r)
Metrics:
  1. MatchingCluster (mc)
Input file: C:/Users/aleja/OneDrive - Karolinska Institutet/Documentos/JOBS/Liquenes/Lichens_project/Sticta/co-divergence/Reviewed\random_trees.newick
Output file: C:/Users/aleja/OneDrive - Karolinska Institutet/Documentos/JOBS/Liquenes/Lichens_project/Sticta/co-divergence/Reviewed\compare_mc\compare_ht_random.txt
Additional options:
N - Report normalized distances.
-----
2024-06-22 13:29:37: Start of reading random statistics.
2024-06-22 13:29:37: End of reading random statistics.
2024-06-22 13:29:37: Start of scanning input file: C:/Users/aleja/OneDrive - Karolinska Institutet/Documentos/JOBS/Liquenes/Lichens_project/Sticta/co-divergence/Reviewed\random_trees.newick
2024-06-22 13:29:37: End of scanning input file: C:/Users/aleja/OneDrive - Karolinska Institutet/Documentos/JOBS/Liquenes/Lichens_project/Sticta/co-divergence/Reviewed\random_trees.newick
2024-06-22 13:29:37: 10000 valid trees found in file: C:/Users/aleja/OneDrive - Karolinska Institutet/Documentos/JOBS/Liquenes/Lichens_project/Sticta/co-divergence/Reviewed\random_trees.newick
2024-06-22 13:29:37: Start of calculation...please wait...
2024-06-22 13:29:37: 0.00% completed...
2024-06-22 13:29:37: 5.00% completed...
2024-06-22 13:29:37: 10.00% completed...
2024-06-22 13:29:37: 15.00% completed...
2024-06-22 13:29:37: 20.00% completed...
2024-06-22 13:29:37: 25.00% completed...
2024-06-22 13:29:37: 30.00% completed...
2024-06-22 13:29:37: 35.00% completed...
2024-06-22 13:29:37: 40.00% completed...
2024-06-22 13:29:38: 45.00% completed...
2024-06-22 13:29:38: 50.00% completed...
2024-06-22 13:29:38: 55.00% completed...
2024-06-22 13:29:38: 60.00% completed...
2024-06-22 13:29:38: 65.00% completed...
2024-06-22 13:29:38: 70.00% completed...
2024-06-22 13:29:38: 75.00% completed...
2024-06-22 13:29:38: 80.00% completed...
2024-06-22 13:29:38: 85.00% completed...
2024-06-22 13:29:38: 90.00% completed...
2024-06-22 13:29:38: 95.00% completed...
2024-06-22 13:29:38: 100.00% completed.
2024-06-22 13:29:38: End of calculation.
2024-06-22 13:29:38: Total calculation time: 698 ms.

ERROR:__main__:Command error: 
INFO:__main__: --- METHOD: Rooted Matching Cluster --- 
INFO:__main__:Host-Microbe Score:   12.0
INFO:__main__:Max Stochastic Metric: 16.0
INFO:__main__:Normalized Score: 0.75
INFO:__main__:Random Trees with Equivalent or More Congruent Score: 7810
INFO:__main__:Total Trees: 10000
INFO:__main__:P-Value: 0.781

INFO:__main__:Running command: java -jar "C:/Users/aleja/Downloads/TreeCmp_v1.0-b291/TreeCmp/bin/TreeCmp.jar" -r "C:/Users/aleja/OneDrive - Karolinska Institutet/Documentos/JOBS/Liquenes/Lichens_project/Sticta/co-divergence/Reviewed\ht.newick" -d rf -i "C:/Users/aleja/OneDrive - Karolinska Institutet/Documentos/JOBS/Liquenes/Lichens_project/Sticta/co-divergence/Reviewed\mt.newick" -o "C:/Users/aleja/OneDrive - Karolinska Institutet/Documentos/JOBS/Liquenes/Lichens_project/Sticta/co-divergence/Reviewed\compare_rf\compare_ht_mt.txt" -N
INFO:__main__:Command output: TreeCmp version 1.0-b291

Active options:
Type of the analysis:  one-to-all comparison mode (-r)
Metrics:
  1. R-F (rf)
Input file: C:/Users/aleja/OneDrive - Karolinska Institutet/Documentos/JOBS/Liquenes/Lichens_project/Sticta/co-divergence/Reviewed\mt.newick
Output file: C:/Users/aleja/OneDrive - Karolinska Institutet/Documentos/JOBS/Liquenes/Lichens_project/Sticta/co-divergence/Reviewed\compare_rf\compare_ht_mt.txt
Additional options:
N - Report normalized distances.
-----
2024-06-22 13:29:38: Start of reading random statistics.
2024-06-22 13:29:38: End of reading random statistics.
2024-06-22 13:29:38: Start of scanning input file: C:/Users/aleja/OneDrive - Karolinska Institutet/Documentos/JOBS/Liquenes/Lichens_project/Sticta/co-divergence/Reviewed\mt.newick
2024-06-22 13:29:38: End of scanning input file: C:/Users/aleja/OneDrive - Karolinska Institutet/Documentos/JOBS/Liquenes/Lichens_project/Sticta/co-divergence/Reviewed\mt.newick
2024-06-22 13:29:38: 1 valid trees found in file: C:/Users/aleja/OneDrive - Karolinska Institutet/Documentos/JOBS/Liquenes/Lichens_project/Sticta/co-divergence/Reviewed\mt.newick
2024-06-22 13:29:38: Start of calculation...please wait...
2024-06-22 13:29:38: 0.00% completed...
2024-06-22 13:29:38: 100.00% completed.
2024-06-22 13:29:38: End of calculation.
2024-06-22 13:29:38: Total calculation time: 23 ms.

ERROR:__main__:Command error: 
INFO:__main__:Running command: java -jar "C:/Users/aleja/Downloads/TreeCmp_v1.0-b291/TreeCmp/bin/TreeCmp.jar" -r "C:/Users/aleja/OneDrive - Karolinska Institutet/Documentos/JOBS/Liquenes/Lichens_project/Sticta/co-divergence/Reviewed\ht.newick" -d rf -i "C:/Users/aleja/OneDrive - Karolinska Institutet/Documentos/JOBS/Liquenes/Lichens_project/Sticta/co-divergence/Reviewed\random_trees.newick" -o "C:/Users/aleja/OneDrive - Karolinska Institutet/Documentos/JOBS/Liquenes/Lichens_project/Sticta/co-divergence/Reviewed\compare_rf\compare_ht_random.txt" -N
INFO:__main__:Command output: TreeCmp version 1.0-b291

Active options:
Type of the analysis:  one-to-all comparison mode (-r)
Metrics:
  1. R-F (rf)
Input file: C:/Users/aleja/OneDrive - Karolinska Institutet/Documentos/JOBS/Liquenes/Lichens_project/Sticta/co-divergence/Reviewed\random_trees.newick
Output file: C:/Users/aleja/OneDrive - Karolinska Institutet/Documentos/JOBS/Liquenes/Lichens_project/Sticta/co-divergence/Reviewed\compare_rf\compare_ht_random.txt
Additional options:
N - Report normalized distances.
-----
2024-06-22 13:29:38: Start of reading random statistics.
2024-06-22 13:29:38: End of reading random statistics.
2024-06-22 13:29:38: Start of scanning input file: C:/Users/aleja/OneDrive - Karolinska Institutet/Documentos/JOBS/Liquenes/Lichens_project/Sticta/co-divergence/Reviewed\random_trees.newick
2024-06-22 13:29:39: End of scanning input file: C:/Users/aleja/OneDrive - Karolinska Institutet/Documentos/JOBS/Liquenes/Lichens_project/Sticta/co-divergence/Reviewed\random_trees.newick
2024-06-22 13:29:39: 10000 valid trees found in file: C:/Users/aleja/OneDrive - Karolinska Institutet/Documentos/JOBS/Liquenes/Lichens_project/Sticta/co-divergence/Reviewed\random_trees.newick
2024-06-22 13:29:39: Start of calculation...please wait...
2024-06-22 13:29:39: 0.00% completed...
2024-06-22 13:29:39: 5.00% completed...
2024-06-22 13:29:39: 10.00% completed...
2024-06-22 13:29:39: 15.00% completed...
2024-06-22 13:29:39: 20.00% completed...
2024-06-22 13:29:39: 25.00% completed...
2024-06-22 13:29:39: 30.00% completed...
2024-06-22 13:29:39: 35.00% completed...
2024-06-22 13:29:39: 40.00% completed...
2024-06-22 13:29:39: 45.00% completed...
2024-06-22 13:29:39: 50.00% completed...
2024-06-22 13:29:39: 55.00% completed...
2024-06-22 13:29:39: 60.00% completed...
2024-06-22 13:29:39: 65.00% completed...
2024-06-22 13:29:39: 70.00% completed...
2024-06-22 13:29:39: 75.00% completed...
2024-06-22 13:29:39: 80.00% completed...
2024-06-22 13:29:39: 85.00% completed...
2024-06-22 13:29:39: 90.00% completed...
2024-06-22 13:29:39: 95.00% completed...
2024-06-22 13:29:39: 100.00% completed.
2024-06-22 13:29:39: End of calculation.
2024-06-22 13:29:39: Total calculation time: 545 ms.

ERROR:__main__:Command error: 
INFO:__main__: --- METHOD: Unrooted Robinson-Foulds --- 
INFO:__main__:Host-Microbe Score:   4.0
INFO:__main__:Max Stochastic Metric: 4.0
INFO:__main__:Normalized Score: 1.0
INFO:__main__:Random Trees with Equivalent or More Congruent Score: 10000
INFO:__main__:Total Trees: 10000
INFO:__main__:P-Value: 1.0

INFO:__main__:Running command: java -jar "C:/Users/aleja/Downloads/TreeCmp_v1.0-b291/TreeCmp/bin/TreeCmp.jar" -r "C:/Users/aleja/OneDrive - Karolinska Institutet/Documentos/JOBS/Liquenes/Lichens_project/Sticta/co-divergence/Reviewed\ht.newick" -d ms -i "C:/Users/aleja/OneDrive - Karolinska Institutet/Documentos/JOBS/Liquenes/Lichens_project/Sticta/co-divergence/Reviewed\mt.newick" -o "C:/Users/aleja/OneDrive - Karolinska Institutet/Documentos/JOBS/Liquenes/Lichens_project/Sticta/co-divergence/Reviewed\compare_ms\compare_ht_mt.txt" -N
INFO:__main__:Command output: TreeCmp version 1.0-b291

Active options:
Type of the analysis:  one-to-all comparison mode (-r)
Metrics:
  1. MatchingSplit (ms)
Input file: C:/Users/aleja/OneDrive - Karolinska Institutet/Documentos/JOBS/Liquenes/Lichens_project/Sticta/co-divergence/Reviewed\mt.newick
Output file: C:/Users/aleja/OneDrive - Karolinska Institutet/Documentos/JOBS/Liquenes/Lichens_project/Sticta/co-divergence/Reviewed\compare_ms\compare_ht_mt.txt
Additional options:
N - Report normalized distances.
-----
2024-06-22 13:29:40: Start of reading random statistics.
2024-06-22 13:29:40: End of reading random statistics.
2024-06-22 13:29:40: Start of scanning input file: C:/Users/aleja/OneDrive - Karolinska Institutet/Documentos/JOBS/Liquenes/Lichens_project/Sticta/co-divergence/Reviewed\mt.newick
2024-06-22 13:29:40: End of scanning input file: C:/Users/aleja/OneDrive - Karolinska Institutet/Documentos/JOBS/Liquenes/Lichens_project/Sticta/co-divergence/Reviewed\mt.newick
2024-06-22 13:29:40: 1 valid trees found in file: C:/Users/aleja/OneDrive - Karolinska Institutet/Documentos/JOBS/Liquenes/Lichens_project/Sticta/co-divergence/Reviewed\mt.newick
2024-06-22 13:29:40: Start of calculation...please wait...
2024-06-22 13:29:40: 0.00% completed...
2024-06-22 13:29:40: 100.00% completed.
2024-06-22 13:29:40: End of calculation.
2024-06-22 13:29:40: Total calculation time: 23 ms.

ERROR:__main__:Command error: 
INFO:__main__:Running command: java -jar "C:/Users/aleja/Downloads/TreeCmp_v1.0-b291/TreeCmp/bin/TreeCmp.jar" -r "C:/Users/aleja/OneDrive - Karolinska Institutet/Documentos/JOBS/Liquenes/Lichens_project/Sticta/co-divergence/Reviewed\ht.newick" -d ms -i "C:/Users/aleja/OneDrive - Karolinska Institutet/Documentos/JOBS/Liquenes/Lichens_project/Sticta/co-divergence/Reviewed\random_trees.newick" -o "C:/Users/aleja/OneDrive - Karolinska Institutet/Documentos/JOBS/Liquenes/Lichens_project/Sticta/co-divergence/Reviewed\compare_ms\compare_ht_random.txt" -N
INFO:__main__:Command output: TreeCmp version 1.0-b291

Active options:
Type of the analysis:  one-to-all comparison mode (-r)
Metrics:
  1. MatchingSplit (ms)
Input file: C:/Users/aleja/OneDrive - Karolinska Institutet/Documentos/JOBS/Liquenes/Lichens_project/Sticta/co-divergence/Reviewed\random_trees.newick
Output file: C:/Users/aleja/OneDrive - Karolinska Institutet/Documentos/JOBS/Liquenes/Lichens_project/Sticta/co-divergence/Reviewed\compare_ms\compare_ht_random.txt
Additional options:
N - Report normalized distances.
-----
2024-06-22 13:29:40: Start of reading random statistics.
2024-06-22 13:29:40: End of reading random statistics.
2024-06-22 13:29:40: Start of scanning input file: C:/Users/aleja/OneDrive - Karolinska Institutet/Documentos/JOBS/Liquenes/Lichens_project/Sticta/co-divergence/Reviewed\random_trees.newick
2024-06-22 13:29:40: End of scanning input file: C:/Users/aleja/OneDrive - Karolinska Institutet/Documentos/JOBS/Liquenes/Lichens_project/Sticta/co-divergence/Reviewed\random_trees.newick
2024-06-22 13:29:40: 10000 valid trees found in file: C:/Users/aleja/OneDrive - Karolinska Institutet/Documentos/JOBS/Liquenes/Lichens_project/Sticta/co-divergence/Reviewed\random_trees.newick
2024-06-22 13:29:40: Start of calculation...please wait...
2024-06-22 13:29:40: 0.00% completed...
2024-06-22 13:29:40: 5.00% completed...
2024-06-22 13:29:40: 10.00% completed...
2024-06-22 13:29:40: 15.00% completed...
2024-06-22 13:29:40: 20.00% completed...
2024-06-22 13:29:40: 25.00% completed...
2024-06-22 13:29:40: 30.00% completed...
2024-06-22 13:29:41: 35.00% completed...
2024-06-22 13:29:41: 40.00% completed...
2024-06-22 13:29:41: 45.00% completed...
2024-06-22 13:29:41: 50.00% completed...
2024-06-22 13:29:41: 55.00% completed...
2024-06-22 13:29:41: 60.00% completed...
2024-06-22 13:29:41: 65.00% completed...
2024-06-22 13:29:41: 70.00% completed...
2024-06-22 13:29:41: 75.00% completed...
2024-06-22 13:29:41: 80.00% completed...
2024-06-22 13:29:41: 85.00% completed...
2024-06-22 13:29:41: 90.00% completed...
2024-06-22 13:29:41: 95.00% completed...
2024-06-22 13:29:41: 100.00% completed.
2024-06-22 13:29:41: End of calculation.
2024-06-22 13:29:41: Total calculation time: 732 ms.

ERROR:__main__:Command error: 
INFO:__main__: --- METHOD: Unrooted Matching Split --- 
INFO:__main__:Host-Microbe Score:   8.0
INFO:__main__:Max Stochastic Metric: 10.0
INFO:__main__:Normalized Score: 0.8
INFO:__main__:Random Trees with Equivalent or More Congruent Score: 7242
INFO:__main__:Total Trees: 10000
INFO:__main__:P-Value: 0.7242

