INFO:__main__:Running command: java -jar "C:/Users/aleja/Downloads/TreeCmp_v1.0-b291/TreeCmp/bin/TreeCmp.jar" -r "C:/Users/aleja/OneDrive - Karolinska Institutet/Documentos/JOBS/Liquenes/Lichens_project/Sticta/co-divergence/Reviewed\ht.newick" -d rc -i "C:/Users/aleja/OneDrive - Karolinska Institutet/Documentos/JOBS/Liquenes/Lichens_project/Sticta/co-divergence/Reviewed\mt.newick" -o "C:/Users/aleja/OneDrive - Karolinska Institutet/Documentos/JOBS/Liquenes/Lichens_project/Sticta/co-divergence/Reviewed\compare_rc\compare_ht_mt.txt" -N
INFO:__main__:Command output: TreeCmp version 1.0-b291

Active options:
Type of the analysis:  one-to-all comparison mode (-r)
Metrics:
  1. R-F_Cluster (rc)
Input file: C:/Users/aleja/OneDrive - Karolinska Institutet/Documentos/JOBS/Liquenes/Lichens_project/Sticta/co-divergence/Reviewed\mt.newick
Output file: C:/Users/aleja/OneDrive - Karolinska Institutet/Documentos/JOBS/Liquenes/Lichens_project/Sticta/co-divergence/Reviewed\compare_rc\compare_ht_mt.txt
Additional options:
N - Report normalized distances.
-----
2024-06-21 07:01:19: Start of reading random statistics.
2024-06-21 07:01:19: End of reading random statistics.
2024-06-21 07:01:19: Start of scanning input file: C:/Users/aleja/OneDrive - Karolinska Institutet/Documentos/JOBS/Liquenes/Lichens_project/Sticta/co-divergence/Reviewed\mt.newick
2024-06-21 07:01:19: End of scanning input file: C:/Users/aleja/OneDrive - Karolinska Institutet/Documentos/JOBS/Liquenes/Lichens_project/Sticta/co-divergence/Reviewed\mt.newick
2024-06-21 07:01:19: 1 valid trees found in file: C:/Users/aleja/OneDrive - Karolinska Institutet/Documentos/JOBS/Liquenes/Lichens_project/Sticta/co-divergence/Reviewed\mt.newick
2024-06-21 07:01:19: Start of calculation...please wait...
2024-06-21 07:01:19: 0.00% completed...
2024-06-21 07:01:19: 100.00% completed.
2024-06-21 07:01:19: End of calculation.
2024-06-21 07:01:19: Total calculation time: 12 ms.

ERROR:__main__:Command error: 
INFO:__main__:Running command: java -jar "C:/Users/aleja/Downloads/TreeCmp_v1.0-b291/TreeCmp/bin/TreeCmp.jar" -r "C:/Users/aleja/OneDrive - Karolinska Institutet/Documentos/JOBS/Liquenes/Lichens_project/Sticta/co-divergence/Reviewed\ht.newick" -d rc -i "C:/Users/aleja/OneDrive - Karolinska Institutet/Documentos/JOBS/Liquenes/Lichens_project/Sticta/co-divergence/Reviewed\random_trees.newick" -o "C:/Users/aleja/OneDrive - Karolinska Institutet/Documentos/JOBS/Liquenes/Lichens_project/Sticta/co-divergence/Reviewed\compare_rc\compare_ht_random.txt" -N
INFO:__main__:Command output: TreeCmp version 1.0-b291

Active options:
Type of the analysis:  one-to-all comparison mode (-r)
Metrics:
  1. R-F_Cluster (rc)
Input file: C:/Users/aleja/OneDrive - Karolinska Institutet/Documentos/JOBS/Liquenes/Lichens_project/Sticta/co-divergence/Reviewed\random_trees.newick
Output file: C:/Users/aleja/OneDrive - Karolinska Institutet/Documentos/JOBS/Liquenes/Lichens_project/Sticta/co-divergence/Reviewed\compare_rc\compare_ht_random.txt
Additional options:
N - Report normalized distances.
-----
2024-06-21 07:01:19: Start of reading random statistics.
2024-06-21 07:01:19: End of reading random statistics.
2024-06-21 07:01:19: Start of scanning input file: C:/Users/aleja/OneDrive - Karolinska Institutet/Documentos/JOBS/Liquenes/Lichens_project/Sticta/co-divergence/Reviewed\random_trees.newick
2024-06-21 07:01:19: End of scanning input file: C:/Users/aleja/OneDrive - Karolinska Institutet/Documentos/JOBS/Liquenes/Lichens_project/Sticta/co-divergence/Reviewed\random_trees.newick
2024-06-21 07:01:19: 10000 valid trees found in file: C:/Users/aleja/OneDrive - Karolinska Institutet/Documentos/JOBS/Liquenes/Lichens_project/Sticta/co-divergence/Reviewed\random_trees.newick
2024-06-21 07:01:19: Start of calculation...please wait...
2024-06-21 07:01:19: 0.00% completed...
2024-06-21 07:01:19: 5.00% completed...
2024-06-21 07:01:19: 10.00% completed...
2024-06-21 07:01:20: 15.00% completed...
2024-06-21 07:01:20: 20.00% completed...
2024-06-21 07:01:20: 25.00% completed...
2024-06-21 07:01:20: 30.00% completed...
2024-06-21 07:01:20: 35.00% completed...
2024-06-21 07:01:20: 40.00% completed...
2024-06-21 07:01:20: 45.00% completed...
2024-06-21 07:01:20: 50.00% completed...
2024-06-21 07:01:20: 55.00% completed...
2024-06-21 07:01:20: 60.00% completed...
2024-06-21 07:01:20: 65.00% completed...
2024-06-21 07:01:20: 70.00% completed...
2024-06-21 07:01:20: 75.00% completed...
2024-06-21 07:01:20: 80.00% completed...
2024-06-21 07:01:20: 85.00% completed...
2024-06-21 07:01:20: 90.00% completed...
2024-06-21 07:01:20: 95.00% completed...
2024-06-21 07:01:20: 100.00% completed.
2024-06-21 07:01:20: End of calculation.
2024-06-21 07:01:20: Total calculation time: 553 ms.

ERROR:__main__:Command error: 
INFO:__main__: --- METHOD: Rooted Robinson-Foulds --- 
INFO:__main__:Host-Microbe Score:   4.5
INFO:__main__:Max Stochastic Metric: 4.5
INFO:__main__:Normalized Score: 1.0
INFO:__main__:Random Trees with Equivalent or More Congruent Score: 10000
INFO:__main__:Total Trees: 10000
INFO:__main__:P-Value: 1.0

INFO:__main__:Running command: java -jar "C:/Users/aleja/Downloads/TreeCmp_v1.0-b291/TreeCmp/bin/TreeCmp.jar" -r "C:/Users/aleja/OneDrive - Karolinska Institutet/Documentos/JOBS/Liquenes/Lichens_project/Sticta/co-divergence/Reviewed\ht.newick" -d mc -i "C:/Users/aleja/OneDrive - Karolinska Institutet/Documentos/JOBS/Liquenes/Lichens_project/Sticta/co-divergence/Reviewed\mt.newick" -o "C:/Users/aleja/OneDrive - Karolinska Institutet/Documentos/JOBS/Liquenes/Lichens_project/Sticta/co-divergence/Reviewed\compare_mc\compare_ht_mt.txt" -N
INFO:__main__:Command output: TreeCmp version 1.0-b291

Active options:
Type of the analysis:  one-to-all comparison mode (-r)
Metrics:
  1. MatchingCluster (mc)
Input file: C:/Users/aleja/OneDrive - Karolinska Institutet/Documentos/JOBS/Liquenes/Lichens_project/Sticta/co-divergence/Reviewed\mt.newick
Output file: C:/Users/aleja/OneDrive - Karolinska Institutet/Documentos/JOBS/Liquenes/Lichens_project/Sticta/co-divergence/Reviewed\compare_mc\compare_ht_mt.txt
Additional options:
N - Report normalized distances.
-----
2024-06-21 07:01:20: Start of reading random statistics.
2024-06-21 07:01:20: End of reading random statistics.
2024-06-21 07:01:20: Start of scanning input file: C:/Users/aleja/OneDrive - Karolinska Institutet/Documentos/JOBS/Liquenes/Lichens_project/Sticta/co-divergence/Reviewed\mt.newick
2024-06-21 07:01:20: End of scanning input file: C:/Users/aleja/OneDrive - Karolinska Institutet/Documentos/JOBS/Liquenes/Lichens_project/Sticta/co-divergence/Reviewed\mt.newick
2024-06-21 07:01:20: 1 valid trees found in file: C:/Users/aleja/OneDrive - Karolinska Institutet/Documentos/JOBS/Liquenes/Lichens_project/Sticta/co-divergence/Reviewed\mt.newick
2024-06-21 07:01:20: Start of calculation...please wait...
2024-06-21 07:01:20: 0.00% completed...
2024-06-21 07:01:20: 100.00% completed.
2024-06-21 07:01:20: End of calculation.
2024-06-21 07:01:20: Total calculation time: 16 ms.

ERROR:__main__:Command error: 
INFO:__main__:Running command: java -jar "C:/Users/aleja/Downloads/TreeCmp_v1.0-b291/TreeCmp/bin/TreeCmp.jar" -r "C:/Users/aleja/OneDrive - Karolinska Institutet/Documentos/JOBS/Liquenes/Lichens_project/Sticta/co-divergence/Reviewed\ht.newick" -d mc -i "C:/Users/aleja/OneDrive - Karolinska Institutet/Documentos/JOBS/Liquenes/Lichens_project/Sticta/co-divergence/Reviewed\random_trees.newick" -o "C:/Users/aleja/OneDrive - Karolinska Institutet/Documentos/JOBS/Liquenes/Lichens_project/Sticta/co-divergence/Reviewed\compare_mc\compare_ht_random.txt" -N
INFO:__main__:Command output: TreeCmp version 1.0-b291

Active options:
Type of the analysis:  one-to-all comparison mode (-r)
Metrics:
  1. MatchingCluster (mc)
Input file: C:/Users/aleja/OneDrive - Karolinska Institutet/Documentos/JOBS/Liquenes/Lichens_project/Sticta/co-divergence/Reviewed\random_trees.newick
Output file: C:/Users/aleja/OneDrive - Karolinska Institutet/Documentos/JOBS/Liquenes/Lichens_project/Sticta/co-divergence/Reviewed\compare_mc\compare_ht_random.txt
Additional options:
N - Report normalized distances.
-----
2024-06-21 07:01:21: Start of reading random statistics.
2024-06-21 07:01:21: End of reading random statistics.
2024-06-21 07:01:21: Start of scanning input file: C:/Users/aleja/OneDrive - Karolinska Institutet/Documentos/JOBS/Liquenes/Lichens_project/Sticta/co-divergence/Reviewed\random_trees.newick
2024-06-21 07:01:21: End of scanning input file: C:/Users/aleja/OneDrive - Karolinska Institutet/Documentos/JOBS/Liquenes/Lichens_project/Sticta/co-divergence/Reviewed\random_trees.newick
2024-06-21 07:01:21: 10000 valid trees found in file: C:/Users/aleja/OneDrive - Karolinska Institutet/Documentos/JOBS/Liquenes/Lichens_project/Sticta/co-divergence/Reviewed\random_trees.newick
2024-06-21 07:01:21: Start of calculation...please wait...
2024-06-21 07:01:21: 0.00% completed...
2024-06-21 07:01:21: 5.00% completed...
2024-06-21 07:01:21: 10.00% completed...
2024-06-21 07:01:21: 15.00% completed...
2024-06-21 07:01:21: 20.00% completed...
2024-06-21 07:01:21: 25.00% completed...
2024-06-21 07:01:21: 30.00% completed...
2024-06-21 07:01:21: 35.00% completed...
2024-06-21 07:01:21: 40.00% completed...
2024-06-21 07:01:21: 45.00% completed...
2024-06-21 07:01:21: 50.00% completed...
2024-06-21 07:01:21: 55.00% completed...
2024-06-21 07:01:21: 60.00% completed...
2024-06-21 07:01:21: 65.00% completed...
2024-06-21 07:01:21: 70.00% completed...
2024-06-21 07:01:21: 75.00% completed...
2024-06-21 07:01:21: 80.00% completed...
2024-06-21 07:01:21: 85.00% completed...
2024-06-21 07:01:22: 90.00% completed...
2024-06-21 07:01:22: 95.00% completed...
2024-06-21 07:01:22: 100.00% completed.
2024-06-21 07:01:22: End of calculation.
2024-06-21 07:01:22: Total calculation time: 583 ms.

ERROR:__main__:Command error: 
INFO:__main__: --- METHOD: Rooted Matching Cluster --- 
INFO:__main__:Host-Microbe Score:   11.0
INFO:__main__:Max Stochastic Metric: 16.0
INFO:__main__:Normalized Score: 0.6875
INFO:__main__:Random Trees with Equivalent or More Congruent Score: 4584
INFO:__main__:Total Trees: 10000
INFO:__main__:P-Value: 0.4584

INFO:__main__:Running command: java -jar "C:/Users/aleja/Downloads/TreeCmp_v1.0-b291/TreeCmp/bin/TreeCmp.jar" -r "C:/Users/aleja/OneDrive - Karolinska Institutet/Documentos/JOBS/Liquenes/Lichens_project/Sticta/co-divergence/Reviewed\ht.newick" -d rf -i "C:/Users/aleja/OneDrive - Karolinska Institutet/Documentos/JOBS/Liquenes/Lichens_project/Sticta/co-divergence/Reviewed\mt.newick" -o "C:/Users/aleja/OneDrive - Karolinska Institutet/Documentos/JOBS/Liquenes/Lichens_project/Sticta/co-divergence/Reviewed\compare_rf\compare_ht_mt.txt" -N
INFO:__main__:Command output: TreeCmp version 1.0-b291

Active options:
Type of the analysis:  one-to-all comparison mode (-r)
Metrics:
  1. R-F (rf)
Input file: C:/Users/aleja/OneDrive - Karolinska Institutet/Documentos/JOBS/Liquenes/Lichens_project/Sticta/co-divergence/Reviewed\mt.newick
Output file: C:/Users/aleja/OneDrive - Karolinska Institutet/Documentos/JOBS/Liquenes/Lichens_project/Sticta/co-divergence/Reviewed\compare_rf\compare_ht_mt.txt
Additional options:
N - Report normalized distances.
-----
2024-06-21 07:01:22: Start of reading random statistics.
2024-06-21 07:01:22: End of reading random statistics.
2024-06-21 07:01:22: Start of scanning input file: C:/Users/aleja/OneDrive - Karolinska Institutet/Documentos/JOBS/Liquenes/Lichens_project/Sticta/co-divergence/Reviewed\mt.newick
2024-06-21 07:01:22: End of scanning input file: C:/Users/aleja/OneDrive - Karolinska Institutet/Documentos/JOBS/Liquenes/Lichens_project/Sticta/co-divergence/Reviewed\mt.newick
2024-06-21 07:01:22: 1 valid trees found in file: C:/Users/aleja/OneDrive - Karolinska Institutet/Documentos/JOBS/Liquenes/Lichens_project/Sticta/co-divergence/Reviewed\mt.newick
2024-06-21 07:01:22: Start of calculation...please wait...
2024-06-21 07:01:22: 0.00% completed...
2024-06-21 07:01:22: 100.00% completed.
2024-06-21 07:01:22: End of calculation.
2024-06-21 07:01:22: Total calculation time: 21 ms.

ERROR:__main__:Command error: 
INFO:__main__:Running command: java -jar "C:/Users/aleja/Downloads/TreeCmp_v1.0-b291/TreeCmp/bin/TreeCmp.jar" -r "C:/Users/aleja/OneDrive - Karolinska Institutet/Documentos/JOBS/Liquenes/Lichens_project/Sticta/co-divergence/Reviewed\ht.newick" -d rf -i "C:/Users/aleja/OneDrive - Karolinska Institutet/Documentos/JOBS/Liquenes/Lichens_project/Sticta/co-divergence/Reviewed\random_trees.newick" -o "C:/Users/aleja/OneDrive - Karolinska Institutet/Documentos/JOBS/Liquenes/Lichens_project/Sticta/co-divergence/Reviewed\compare_rf\compare_ht_random.txt" -N
INFO:__main__:Command output: TreeCmp version 1.0-b291

Active options:
Type of the analysis:  one-to-all comparison mode (-r)
Metrics:
  1. R-F (rf)
Input file: C:/Users/aleja/OneDrive - Karolinska Institutet/Documentos/JOBS/Liquenes/Lichens_project/Sticta/co-divergence/Reviewed\random_trees.newick
Output file: C:/Users/aleja/OneDrive - Karolinska Institutet/Documentos/JOBS/Liquenes/Lichens_project/Sticta/co-divergence/Reviewed\compare_rf\compare_ht_random.txt
Additional options:
N - Report normalized distances.
-----
2024-06-21 07:01:22: Start of reading random statistics.
2024-06-21 07:01:22: End of reading random statistics.
2024-06-21 07:01:22: Start of scanning input file: C:/Users/aleja/OneDrive - Karolinska Institutet/Documentos/JOBS/Liquenes/Lichens_project/Sticta/co-divergence/Reviewed\random_trees.newick
2024-06-21 07:01:22: End of scanning input file: C:/Users/aleja/OneDrive - Karolinska Institutet/Documentos/JOBS/Liquenes/Lichens_project/Sticta/co-divergence/Reviewed\random_trees.newick
2024-06-21 07:01:22: 10000 valid trees found in file: C:/Users/aleja/OneDrive - Karolinska Institutet/Documentos/JOBS/Liquenes/Lichens_project/Sticta/co-divergence/Reviewed\random_trees.newick
2024-06-21 07:01:22: Start of calculation...please wait...
2024-06-21 07:01:22: 0.00% completed...
2024-06-21 07:01:22: 5.00% completed...
2024-06-21 07:01:23: 10.00% completed...
2024-06-21 07:01:23: 15.00% completed...
2024-06-21 07:01:23: 20.00% completed...
2024-06-21 07:01:23: 25.00% completed...
2024-06-21 07:01:23: 30.00% completed...
2024-06-21 07:01:23: 35.00% completed...
2024-06-21 07:01:23: 40.00% completed...
2024-06-21 07:01:23: 45.00% completed...
2024-06-21 07:01:23: 50.00% completed...
2024-06-21 07:01:23: 55.00% completed...
2024-06-21 07:01:23: 60.00% completed...
2024-06-21 07:01:23: 65.00% completed...
2024-06-21 07:01:23: 70.00% completed...
2024-06-21 07:01:23: 75.00% completed...
2024-06-21 07:01:23: 80.00% completed...
2024-06-21 07:01:23: 85.00% completed...
2024-06-21 07:01:23: 90.00% completed...
2024-06-21 07:01:23: 95.00% completed...
2024-06-21 07:01:23: 100.00% completed.
2024-06-21 07:01:23: End of calculation.
2024-06-21 07:01:23: Total calculation time: 418 ms.

ERROR:__main__:Command error: 
INFO:__main__: --- METHOD: Unrooted Robinson-Foulds --- 
INFO:__main__:Host-Microbe Score:   4.0
INFO:__main__:Max Stochastic Metric: 4.0
INFO:__main__:Normalized Score: 1.0
INFO:__main__:Random Trees with Equivalent or More Congruent Score: 10000
INFO:__main__:Total Trees: 10000
INFO:__main__:P-Value: 1.0

INFO:__main__:Running command: java -jar "C:/Users/aleja/Downloads/TreeCmp_v1.0-b291/TreeCmp/bin/TreeCmp.jar" -r "C:/Users/aleja/OneDrive - Karolinska Institutet/Documentos/JOBS/Liquenes/Lichens_project/Sticta/co-divergence/Reviewed\ht.newick" -d ms -i "C:/Users/aleja/OneDrive - Karolinska Institutet/Documentos/JOBS/Liquenes/Lichens_project/Sticta/co-divergence/Reviewed\mt.newick" -o "C:/Users/aleja/OneDrive - Karolinska Institutet/Documentos/JOBS/Liquenes/Lichens_project/Sticta/co-divergence/Reviewed\compare_ms\compare_ht_mt.txt" -N
INFO:__main__:Command output: TreeCmp version 1.0-b291

Active options:
Type of the analysis:  one-to-all comparison mode (-r)
Metrics:
  1. MatchingSplit (ms)
Input file: C:/Users/aleja/OneDrive - Karolinska Institutet/Documentos/JOBS/Liquenes/Lichens_project/Sticta/co-divergence/Reviewed\mt.newick
Output file: C:/Users/aleja/OneDrive - Karolinska Institutet/Documentos/JOBS/Liquenes/Lichens_project/Sticta/co-divergence/Reviewed\compare_ms\compare_ht_mt.txt
Additional options:
N - Report normalized distances.
-----
2024-06-21 07:01:23: Start of reading random statistics.
2024-06-21 07:01:23: End of reading random statistics.
2024-06-21 07:01:23: Start of scanning input file: C:/Users/aleja/OneDrive - Karolinska Institutet/Documentos/JOBS/Liquenes/Lichens_project/Sticta/co-divergence/Reviewed\mt.newick
2024-06-21 07:01:23: End of scanning input file: C:/Users/aleja/OneDrive - Karolinska Institutet/Documentos/JOBS/Liquenes/Lichens_project/Sticta/co-divergence/Reviewed\mt.newick
2024-06-21 07:01:23: 1 valid trees found in file: C:/Users/aleja/OneDrive - Karolinska Institutet/Documentos/JOBS/Liquenes/Lichens_project/Sticta/co-divergence/Reviewed\mt.newick
2024-06-21 07:01:23: Start of calculation...please wait...
2024-06-21 07:01:23: 0.00% completed...
2024-06-21 07:01:23: 100.00% completed.
2024-06-21 07:01:23: End of calculation.
2024-06-21 07:01:23: Total calculation time: 26 ms.

ERROR:__main__:Command error: 
INFO:__main__:Running command: java -jar "C:/Users/aleja/Downloads/TreeCmp_v1.0-b291/TreeCmp/bin/TreeCmp.jar" -r "C:/Users/aleja/OneDrive - Karolinska Institutet/Documentos/JOBS/Liquenes/Lichens_project/Sticta/co-divergence/Reviewed\ht.newick" -d ms -i "C:/Users/aleja/OneDrive - Karolinska Institutet/Documentos/JOBS/Liquenes/Lichens_project/Sticta/co-divergence/Reviewed\random_trees.newick" -o "C:/Users/aleja/OneDrive - Karolinska Institutet/Documentos/JOBS/Liquenes/Lichens_project/Sticta/co-divergence/Reviewed\compare_ms\compare_ht_random.txt" -N
INFO:__main__:Command output: TreeCmp version 1.0-b291

Active options:
Type of the analysis:  one-to-all comparison mode (-r)
Metrics:
  1. MatchingSplit (ms)
Input file: C:/Users/aleja/OneDrive - Karolinska Institutet/Documentos/JOBS/Liquenes/Lichens_project/Sticta/co-divergence/Reviewed\random_trees.newick
Output file: C:/Users/aleja/OneDrive - Karolinska Institutet/Documentos/JOBS/Liquenes/Lichens_project/Sticta/co-divergence/Reviewed\compare_ms\compare_ht_random.txt
Additional options:
N - Report normalized distances.
-----
2024-06-21 07:01:23: Start of reading random statistics.
2024-06-21 07:01:24: End of reading random statistics.
2024-06-21 07:01:24: Start of scanning input file: C:/Users/aleja/OneDrive - Karolinska Institutet/Documentos/JOBS/Liquenes/Lichens_project/Sticta/co-divergence/Reviewed\random_trees.newick
2024-06-21 07:01:24: End of scanning input file: C:/Users/aleja/OneDrive - Karolinska Institutet/Documentos/JOBS/Liquenes/Lichens_project/Sticta/co-divergence/Reviewed\random_trees.newick
2024-06-21 07:01:24: 10000 valid trees found in file: C:/Users/aleja/OneDrive - Karolinska Institutet/Documentos/JOBS/Liquenes/Lichens_project/Sticta/co-divergence/Reviewed\random_trees.newick
2024-06-21 07:01:24: Start of calculation...please wait...
2024-06-21 07:01:24: 0.00% completed...
2024-06-21 07:01:24: 5.00% completed...
2024-06-21 07:01:24: 10.00% completed...
2024-06-21 07:01:24: 15.00% completed...
2024-06-21 07:01:24: 20.00% completed...
2024-06-21 07:01:24: 25.00% completed...
2024-06-21 07:01:24: 30.00% completed...
2024-06-21 07:01:24: 35.00% completed...
2024-06-21 07:01:24: 40.00% completed...
2024-06-21 07:01:24: 45.00% completed...
2024-06-21 07:01:24: 50.00% completed...
2024-06-21 07:01:24: 55.00% completed...
2024-06-21 07:01:24: 60.00% completed...
2024-06-21 07:01:24: 65.00% completed...
2024-06-21 07:01:24: 70.00% completed...
2024-06-21 07:01:24: 75.00% completed...
2024-06-21 07:01:24: 80.00% completed...
2024-06-21 07:01:24: 85.00% completed...
2024-06-21 07:01:24: 90.00% completed...
2024-06-21 07:01:24: 95.00% completed...
2024-06-21 07:01:24: 100.00% completed.
2024-06-21 07:01:24: End of calculation.
2024-06-21 07:01:24: Total calculation time: 590 ms.

ERROR:__main__:Command error: 
INFO:__main__: --- METHOD: Unrooted Matching Split --- 
INFO:__main__:Host-Microbe Score:   7.0
INFO:__main__:Max Stochastic Metric: 10.0
INFO:__main__:Normalized Score: 0.7
INFO:__main__:Random Trees with Equivalent or More Congruent Score: 5001
INFO:__main__:Total Trees: 10000
INFO:__main__:P-Value: 0.5001

