INFO:__main__:Running command: java -jar "C:/Users/aleja/Downloads/TreeCmp_v1.0-b291/TreeCmp/bin/TreeCmp.jar" -r "C:/Users/aleja/OneDrive - Karolinska Institutet/Documentos/JOBS/Liquenes/Lichens_project/Sticta/co-divergence/Reviewed\ht.newick" -d rc -i "C:/Users/aleja/OneDrive - Karolinska Institutet/Documentos/JOBS/Liquenes/Lichens_project/Sticta/co-divergence/Reviewed\mt.newick" -o "C:/Users/aleja/OneDrive - Karolinska Institutet/Documentos/JOBS/Liquenes/Lichens_project/Sticta/co-divergence/Reviewed\compare_rc\compare_ht_mt.txt" -N
INFO:__main__:Command output: TreeCmp version 1.0-b291

Active options:
Type of the analysis:  one-to-all comparison mode (-r)
Metrics:
  1. R-F_Cluster (rc)
Input file: C:/Users/aleja/OneDrive - Karolinska Institutet/Documentos/JOBS/Liquenes/Lichens_project/Sticta/co-divergence/Reviewed\mt.newick
Output file: C:/Users/aleja/OneDrive - Karolinska Institutet/Documentos/JOBS/Liquenes/Lichens_project/Sticta/co-divergence/Reviewed\compare_rc\compare_ht_mt.txt
Additional options:
N - Report normalized distances.
-----
2024-06-21 00:08:59: Start of reading random statistics.
2024-06-21 00:08:59: End of reading random statistics.
2024-06-21 00:08:59: Start of scanning input file: C:/Users/aleja/OneDrive - Karolinska Institutet/Documentos/JOBS/Liquenes/Lichens_project/Sticta/co-divergence/Reviewed\mt.newick
2024-06-21 00:08:59: End of scanning input file: C:/Users/aleja/OneDrive - Karolinska Institutet/Documentos/JOBS/Liquenes/Lichens_project/Sticta/co-divergence/Reviewed\mt.newick
2024-06-21 00:08:59: 1 valid trees found in file: C:/Users/aleja/OneDrive - Karolinska Institutet/Documentos/JOBS/Liquenes/Lichens_project/Sticta/co-divergence/Reviewed\mt.newick
2024-06-21 00:08:59: Start of calculation...please wait...
2024-06-21 00:08:59: 0.00% completed...
2024-06-21 00:08:59: 100.00% completed.
2024-06-21 00:08:59: End of calculation.
2024-06-21 00:08:59: Total calculation time: 16 ms.

ERROR:__main__:Command error: 
INFO:__main__:Running command: java -jar "C:/Users/aleja/Downloads/TreeCmp_v1.0-b291/TreeCmp/bin/TreeCmp.jar" -r "C:/Users/aleja/OneDrive - Karolinska Institutet/Documentos/JOBS/Liquenes/Lichens_project/Sticta/co-divergence/Reviewed\ht.newick" -d rc -i "C:/Users/aleja/OneDrive - Karolinska Institutet/Documentos/JOBS/Liquenes/Lichens_project/Sticta/co-divergence/Reviewed\random_trees.newick" -o "C:/Users/aleja/OneDrive - Karolinska Institutet/Documentos/JOBS/Liquenes/Lichens_project/Sticta/co-divergence/Reviewed\compare_rc\compare_ht_random.txt" -N
INFO:__main__:Command output: TreeCmp version 1.0-b291

Active options:
Type of the analysis:  one-to-all comparison mode (-r)
Metrics:
  1. R-F_Cluster (rc)
Input file: C:/Users/aleja/OneDrive - Karolinska Institutet/Documentos/JOBS/Liquenes/Lichens_project/Sticta/co-divergence/Reviewed\random_trees.newick
Output file: C:/Users/aleja/OneDrive - Karolinska Institutet/Documentos/JOBS/Liquenes/Lichens_project/Sticta/co-divergence/Reviewed\compare_rc\compare_ht_random.txt
Additional options:
N - Report normalized distances.
-----
2024-06-21 00:09:00: Start of reading random statistics.
2024-06-21 00:09:00: End of reading random statistics.
2024-06-21 00:09:00: Start of scanning input file: C:/Users/aleja/OneDrive - Karolinska Institutet/Documentos/JOBS/Liquenes/Lichens_project/Sticta/co-divergence/Reviewed\random_trees.newick
2024-06-21 00:09:00: End of scanning input file: C:/Users/aleja/OneDrive - Karolinska Institutet/Documentos/JOBS/Liquenes/Lichens_project/Sticta/co-divergence/Reviewed\random_trees.newick
2024-06-21 00:09:00: 10000 valid trees found in file: C:/Users/aleja/OneDrive - Karolinska Institutet/Documentos/JOBS/Liquenes/Lichens_project/Sticta/co-divergence/Reviewed\random_trees.newick
2024-06-21 00:09:00: Start of calculation...please wait...
2024-06-21 00:09:00: 0.00% completed...
2024-06-21 00:09:00: 5.00% completed...
2024-06-21 00:09:00: 10.00% completed...
2024-06-21 00:09:00: 15.00% completed...
2024-06-21 00:09:00: 20.00% completed...
2024-06-21 00:09:00: 25.00% completed...
2024-06-21 00:09:00: 30.00% completed...
2024-06-21 00:09:00: 35.00% completed...
2024-06-21 00:09:00: 40.00% completed...
2024-06-21 00:09:00: 45.00% completed...
2024-06-21 00:09:00: 50.00% completed...
2024-06-21 00:09:00: 55.00% completed...
2024-06-21 00:09:00: 60.00% completed...
2024-06-21 00:09:00: 65.00% completed...
2024-06-21 00:09:00: 70.00% completed...
2024-06-21 00:09:00: 75.00% completed...
2024-06-21 00:09:00: 80.00% completed...
2024-06-21 00:09:00: 85.00% completed...
2024-06-21 00:09:00: 90.00% completed...
2024-06-21 00:09:00: 95.00% completed...
2024-06-21 00:09:00: 100.00% completed.
2024-06-21 00:09:00: End of calculation.
2024-06-21 00:09:00: Total calculation time: 512 ms.

ERROR:__main__:Command error: 
INFO:__main__: --- METHOD: Rooted Robinson-Foulds --- 
INFO:__main__:Host-Microbe Score:   4.5
INFO:__main__:Max Stochastic Metric: 4.5
INFO:__main__:Normalized Score: 1.0
INFO:__main__:Random Trees with Equivalent or More Congruent Score: 10000
INFO:__main__:Total Trees: 10000
INFO:__main__:P-Value: 1.0

INFO:__main__:Running command: java -jar "C:/Users/aleja/Downloads/TreeCmp_v1.0-b291/TreeCmp/bin/TreeCmp.jar" -r "C:/Users/aleja/OneDrive - Karolinska Institutet/Documentos/JOBS/Liquenes/Lichens_project/Sticta/co-divergence/Reviewed\ht.newick" -d mc -i "C:/Users/aleja/OneDrive - Karolinska Institutet/Documentos/JOBS/Liquenes/Lichens_project/Sticta/co-divergence/Reviewed\mt.newick" -o "C:/Users/aleja/OneDrive - Karolinska Institutet/Documentos/JOBS/Liquenes/Lichens_project/Sticta/co-divergence/Reviewed\compare_mc\compare_ht_mt.txt" -N
INFO:__main__:Command output: TreeCmp version 1.0-b291

Active options:
Type of the analysis:  one-to-all comparison mode (-r)
Metrics:
  1. MatchingCluster (mc)
Input file: C:/Users/aleja/OneDrive - Karolinska Institutet/Documentos/JOBS/Liquenes/Lichens_project/Sticta/co-divergence/Reviewed\mt.newick
Output file: C:/Users/aleja/OneDrive - Karolinska Institutet/Documentos/JOBS/Liquenes/Lichens_project/Sticta/co-divergence/Reviewed\compare_mc\compare_ht_mt.txt
Additional options:
N - Report normalized distances.
-----
2024-06-21 00:09:01: Start of reading random statistics.
2024-06-21 00:09:01: End of reading random statistics.
2024-06-21 00:09:01: Start of scanning input file: C:/Users/aleja/OneDrive - Karolinska Institutet/Documentos/JOBS/Liquenes/Lichens_project/Sticta/co-divergence/Reviewed\mt.newick
2024-06-21 00:09:01: End of scanning input file: C:/Users/aleja/OneDrive - Karolinska Institutet/Documentos/JOBS/Liquenes/Lichens_project/Sticta/co-divergence/Reviewed\mt.newick
2024-06-21 00:09:01: 1 valid trees found in file: C:/Users/aleja/OneDrive - Karolinska Institutet/Documentos/JOBS/Liquenes/Lichens_project/Sticta/co-divergence/Reviewed\mt.newick
2024-06-21 00:09:01: Start of calculation...please wait...
2024-06-21 00:09:01: 0.00% completed...
2024-06-21 00:09:01: 100.00% completed.
2024-06-21 00:09:01: End of calculation.
2024-06-21 00:09:01: Total calculation time: 20 ms.

ERROR:__main__:Command error: 
INFO:__main__:Running command: java -jar "C:/Users/aleja/Downloads/TreeCmp_v1.0-b291/TreeCmp/bin/TreeCmp.jar" -r "C:/Users/aleja/OneDrive - Karolinska Institutet/Documentos/JOBS/Liquenes/Lichens_project/Sticta/co-divergence/Reviewed\ht.newick" -d mc -i "C:/Users/aleja/OneDrive - Karolinska Institutet/Documentos/JOBS/Liquenes/Lichens_project/Sticta/co-divergence/Reviewed\random_trees.newick" -o "C:/Users/aleja/OneDrive - Karolinska Institutet/Documentos/JOBS/Liquenes/Lichens_project/Sticta/co-divergence/Reviewed\compare_mc\compare_ht_random.txt" -N
INFO:__main__:Command output: TreeCmp version 1.0-b291

Active options:
Type of the analysis:  one-to-all comparison mode (-r)
Metrics:
  1. MatchingCluster (mc)
Input file: C:/Users/aleja/OneDrive - Karolinska Institutet/Documentos/JOBS/Liquenes/Lichens_project/Sticta/co-divergence/Reviewed\random_trees.newick
Output file: C:/Users/aleja/OneDrive - Karolinska Institutet/Documentos/JOBS/Liquenes/Lichens_project/Sticta/co-divergence/Reviewed\compare_mc\compare_ht_random.txt
Additional options:
N - Report normalized distances.
-----
2024-06-21 00:09:01: Start of reading random statistics.
2024-06-21 00:09:01: End of reading random statistics.
2024-06-21 00:09:01: Start of scanning input file: C:/Users/aleja/OneDrive - Karolinska Institutet/Documentos/JOBS/Liquenes/Lichens_project/Sticta/co-divergence/Reviewed\random_trees.newick
2024-06-21 00:09:02: End of scanning input file: C:/Users/aleja/OneDrive - Karolinska Institutet/Documentos/JOBS/Liquenes/Lichens_project/Sticta/co-divergence/Reviewed\random_trees.newick
2024-06-21 00:09:02: 10000 valid trees found in file: C:/Users/aleja/OneDrive - Karolinska Institutet/Documentos/JOBS/Liquenes/Lichens_project/Sticta/co-divergence/Reviewed\random_trees.newick
2024-06-21 00:09:02: Start of calculation...please wait...
2024-06-21 00:09:02: 0.00% completed...
2024-06-21 00:09:02: 5.00% completed...
2024-06-21 00:09:02: 10.00% completed...
2024-06-21 00:09:02: 15.00% completed...
2024-06-21 00:09:02: 20.00% completed...
2024-06-21 00:09:02: 25.00% completed...
2024-06-21 00:09:02: 30.00% completed...
2024-06-21 00:09:02: 35.00% completed...
2024-06-21 00:09:02: 40.00% completed...
2024-06-21 00:09:02: 45.00% completed...
2024-06-21 00:09:02: 50.00% completed...
2024-06-21 00:09:02: 55.00% completed...
2024-06-21 00:09:02: 60.00% completed...
2024-06-21 00:09:02: 65.00% completed...
2024-06-21 00:09:02: 70.00% completed...
2024-06-21 00:09:02: 75.00% completed...
2024-06-21 00:09:02: 80.00% completed...
2024-06-21 00:09:02: 85.00% completed...
2024-06-21 00:09:02: 90.00% completed...
2024-06-21 00:09:02: 95.00% completed...
2024-06-21 00:09:02: 100.00% completed.
2024-06-21 00:09:02: End of calculation.
2024-06-21 00:09:02: Total calculation time: 657 ms.

ERROR:__main__:Command error: 
INFO:__main__: --- METHOD: Rooted Matching Cluster --- 
INFO:__main__:Host-Microbe Score:   10.0
INFO:__main__:Max Stochastic Metric: 16.0
INFO:__main__:Normalized Score: 0.625
INFO:__main__:Random Trees with Equivalent or More Congruent Score: 3991
INFO:__main__:Total Trees: 10000
INFO:__main__:P-Value: 0.3991

INFO:__main__:Running command: java -jar "C:/Users/aleja/Downloads/TreeCmp_v1.0-b291/TreeCmp/bin/TreeCmp.jar" -r "C:/Users/aleja/OneDrive - Karolinska Institutet/Documentos/JOBS/Liquenes/Lichens_project/Sticta/co-divergence/Reviewed\ht.newick" -d rf -i "C:/Users/aleja/OneDrive - Karolinska Institutet/Documentos/JOBS/Liquenes/Lichens_project/Sticta/co-divergence/Reviewed\mt.newick" -o "C:/Users/aleja/OneDrive - Karolinska Institutet/Documentos/JOBS/Liquenes/Lichens_project/Sticta/co-divergence/Reviewed\compare_rf\compare_ht_mt.txt" -N
INFO:__main__:Command output: TreeCmp version 1.0-b291

Active options:
Type of the analysis:  one-to-all comparison mode (-r)
Metrics:
  1. R-F (rf)
Input file: C:/Users/aleja/OneDrive - Karolinska Institutet/Documentos/JOBS/Liquenes/Lichens_project/Sticta/co-divergence/Reviewed\mt.newick
Output file: C:/Users/aleja/OneDrive - Karolinska Institutet/Documentos/JOBS/Liquenes/Lichens_project/Sticta/co-divergence/Reviewed\compare_rf\compare_ht_mt.txt
Additional options:
N - Report normalized distances.
-----
2024-06-21 00:09:03: Start of reading random statistics.
2024-06-21 00:09:03: End of reading random statistics.
2024-06-21 00:09:03: Start of scanning input file: C:/Users/aleja/OneDrive - Karolinska Institutet/Documentos/JOBS/Liquenes/Lichens_project/Sticta/co-divergence/Reviewed\mt.newick
2024-06-21 00:09:03: End of scanning input file: C:/Users/aleja/OneDrive - Karolinska Institutet/Documentos/JOBS/Liquenes/Lichens_project/Sticta/co-divergence/Reviewed\mt.newick
2024-06-21 00:09:03: 1 valid trees found in file: C:/Users/aleja/OneDrive - Karolinska Institutet/Documentos/JOBS/Liquenes/Lichens_project/Sticta/co-divergence/Reviewed\mt.newick
2024-06-21 00:09:03: Start of calculation...please wait...
2024-06-21 00:09:03: 0.00% completed...
2024-06-21 00:09:03: 100.00% completed.
2024-06-21 00:09:03: End of calculation.
2024-06-21 00:09:03: Total calculation time: 27 ms.

ERROR:__main__:Command error: 
INFO:__main__:Running command: java -jar "C:/Users/aleja/Downloads/TreeCmp_v1.0-b291/TreeCmp/bin/TreeCmp.jar" -r "C:/Users/aleja/OneDrive - Karolinska Institutet/Documentos/JOBS/Liquenes/Lichens_project/Sticta/co-divergence/Reviewed\ht.newick" -d rf -i "C:/Users/aleja/OneDrive - Karolinska Institutet/Documentos/JOBS/Liquenes/Lichens_project/Sticta/co-divergence/Reviewed\random_trees.newick" -o "C:/Users/aleja/OneDrive - Karolinska Institutet/Documentos/JOBS/Liquenes/Lichens_project/Sticta/co-divergence/Reviewed\compare_rf\compare_ht_random.txt" -N
INFO:__main__:Command output: TreeCmp version 1.0-b291

Active options:
Type of the analysis:  one-to-all comparison mode (-r)
Metrics:
  1. R-F (rf)
Input file: C:/Users/aleja/OneDrive - Karolinska Institutet/Documentos/JOBS/Liquenes/Lichens_project/Sticta/co-divergence/Reviewed\random_trees.newick
Output file: C:/Users/aleja/OneDrive - Karolinska Institutet/Documentos/JOBS/Liquenes/Lichens_project/Sticta/co-divergence/Reviewed\compare_rf\compare_ht_random.txt
Additional options:
N - Report normalized distances.
-----
2024-06-21 00:09:03: Start of reading random statistics.
2024-06-21 00:09:03: End of reading random statistics.
2024-06-21 00:09:03: Start of scanning input file: C:/Users/aleja/OneDrive - Karolinska Institutet/Documentos/JOBS/Liquenes/Lichens_project/Sticta/co-divergence/Reviewed\random_trees.newick
2024-06-21 00:09:03: End of scanning input file: C:/Users/aleja/OneDrive - Karolinska Institutet/Documentos/JOBS/Liquenes/Lichens_project/Sticta/co-divergence/Reviewed\random_trees.newick
2024-06-21 00:09:03: 10000 valid trees found in file: C:/Users/aleja/OneDrive - Karolinska Institutet/Documentos/JOBS/Liquenes/Lichens_project/Sticta/co-divergence/Reviewed\random_trees.newick
2024-06-21 00:09:03: Start of calculation...please wait...
2024-06-21 00:09:03: 0.00% completed...
2024-06-21 00:09:03: 5.00% completed...
2024-06-21 00:09:03: 10.00% completed...
2024-06-21 00:09:03: 15.00% completed...
2024-06-21 00:09:03: 20.00% completed...
2024-06-21 00:09:03: 25.00% completed...
2024-06-21 00:09:03: 30.00% completed...
2024-06-21 00:09:03: 35.00% completed...
2024-06-21 00:09:03: 40.00% completed...
2024-06-21 00:09:03: 45.00% completed...
2024-06-21 00:09:03: 50.00% completed...
2024-06-21 00:09:04: 55.00% completed...
2024-06-21 00:09:04: 60.00% completed...
2024-06-21 00:09:04: 65.00% completed...
2024-06-21 00:09:04: 70.00% completed...
2024-06-21 00:09:04: 75.00% completed...
2024-06-21 00:09:04: 80.00% completed...
2024-06-21 00:09:04: 85.00% completed...
2024-06-21 00:09:04: 90.00% completed...
2024-06-21 00:09:04: 95.00% completed...
2024-06-21 00:09:04: 100.00% completed.
2024-06-21 00:09:04: End of calculation.
2024-06-21 00:09:04: Total calculation time: 526 ms.

ERROR:__main__:Command error: 
INFO:__main__: --- METHOD: Unrooted Robinson-Foulds --- 
INFO:__main__:Host-Microbe Score:   4.0
INFO:__main__:Max Stochastic Metric: 4.0
INFO:__main__:Normalized Score: 1.0
INFO:__main__:Random Trees with Equivalent or More Congruent Score: 10000
INFO:__main__:Total Trees: 10000
INFO:__main__:P-Value: 1.0

INFO:__main__:Running command: java -jar "C:/Users/aleja/Downloads/TreeCmp_v1.0-b291/TreeCmp/bin/TreeCmp.jar" -r "C:/Users/aleja/OneDrive - Karolinska Institutet/Documentos/JOBS/Liquenes/Lichens_project/Sticta/co-divergence/Reviewed\ht.newick" -d ms -i "C:/Users/aleja/OneDrive - Karolinska Institutet/Documentos/JOBS/Liquenes/Lichens_project/Sticta/co-divergence/Reviewed\mt.newick" -o "C:/Users/aleja/OneDrive - Karolinska Institutet/Documentos/JOBS/Liquenes/Lichens_project/Sticta/co-divergence/Reviewed\compare_ms\compare_ht_mt.txt" -N
INFO:__main__:Command output: TreeCmp version 1.0-b291

Active options:
Type of the analysis:  one-to-all comparison mode (-r)
Metrics:
  1. MatchingSplit (ms)
Input file: C:/Users/aleja/OneDrive - Karolinska Institutet/Documentos/JOBS/Liquenes/Lichens_project/Sticta/co-divergence/Reviewed\mt.newick
Output file: C:/Users/aleja/OneDrive - Karolinska Institutet/Documentos/JOBS/Liquenes/Lichens_project/Sticta/co-divergence/Reviewed\compare_ms\compare_ht_mt.txt
Additional options:
N - Report normalized distances.
-----
2024-06-21 00:09:04: Start of reading random statistics.
2024-06-21 00:09:04: End of reading random statistics.
2024-06-21 00:09:04: Start of scanning input file: C:/Users/aleja/OneDrive - Karolinska Institutet/Documentos/JOBS/Liquenes/Lichens_project/Sticta/co-divergence/Reviewed\mt.newick
2024-06-21 00:09:04: End of scanning input file: C:/Users/aleja/OneDrive - Karolinska Institutet/Documentos/JOBS/Liquenes/Lichens_project/Sticta/co-divergence/Reviewed\mt.newick
2024-06-21 00:09:04: 1 valid trees found in file: C:/Users/aleja/OneDrive - Karolinska Institutet/Documentos/JOBS/Liquenes/Lichens_project/Sticta/co-divergence/Reviewed\mt.newick
2024-06-21 00:09:04: Start of calculation...please wait...
2024-06-21 00:09:04: 0.00% completed...
2024-06-21 00:09:04: 100.00% completed.
2024-06-21 00:09:04: End of calculation.
2024-06-21 00:09:04: Total calculation time: 28 ms.

ERROR:__main__:Command error: 
INFO:__main__:Running command: java -jar "C:/Users/aleja/Downloads/TreeCmp_v1.0-b291/TreeCmp/bin/TreeCmp.jar" -r "C:/Users/aleja/OneDrive - Karolinska Institutet/Documentos/JOBS/Liquenes/Lichens_project/Sticta/co-divergence/Reviewed\ht.newick" -d ms -i "C:/Users/aleja/OneDrive - Karolinska Institutet/Documentos/JOBS/Liquenes/Lichens_project/Sticta/co-divergence/Reviewed\random_trees.newick" -o "C:/Users/aleja/OneDrive - Karolinska Institutet/Documentos/JOBS/Liquenes/Lichens_project/Sticta/co-divergence/Reviewed\compare_ms\compare_ht_random.txt" -N
INFO:__main__:Command output: TreeCmp version 1.0-b291

Active options:
Type of the analysis:  one-to-all comparison mode (-r)
Metrics:
  1. MatchingSplit (ms)
Input file: C:/Users/aleja/OneDrive - Karolinska Institutet/Documentos/JOBS/Liquenes/Lichens_project/Sticta/co-divergence/Reviewed\random_trees.newick
Output file: C:/Users/aleja/OneDrive - Karolinska Institutet/Documentos/JOBS/Liquenes/Lichens_project/Sticta/co-divergence/Reviewed\compare_ms\compare_ht_random.txt
Additional options:
N - Report normalized distances.
-----
2024-06-21 00:09:04: Start of reading random statistics.
2024-06-21 00:09:04: End of reading random statistics.
2024-06-21 00:09:04: Start of scanning input file: C:/Users/aleja/OneDrive - Karolinska Institutet/Documentos/JOBS/Liquenes/Lichens_project/Sticta/co-divergence/Reviewed\random_trees.newick
2024-06-21 00:09:05: End of scanning input file: C:/Users/aleja/OneDrive - Karolinska Institutet/Documentos/JOBS/Liquenes/Lichens_project/Sticta/co-divergence/Reviewed\random_trees.newick
2024-06-21 00:09:05: 10000 valid trees found in file: C:/Users/aleja/OneDrive - Karolinska Institutet/Documentos/JOBS/Liquenes/Lichens_project/Sticta/co-divergence/Reviewed\random_trees.newick
2024-06-21 00:09:05: Start of calculation...please wait...
2024-06-21 00:09:05: 0.00% completed...
2024-06-21 00:09:05: 5.00% completed...
2024-06-21 00:09:05: 10.00% completed...
2024-06-21 00:09:05: 15.00% completed...
2024-06-21 00:09:05: 20.00% completed...
2024-06-21 00:09:05: 25.00% completed...
2024-06-21 00:09:05: 30.00% completed...
2024-06-21 00:09:05: 35.00% completed...
2024-06-21 00:09:05: 40.00% completed...
2024-06-21 00:09:05: 45.00% completed...
2024-06-21 00:09:05: 50.00% completed...
2024-06-21 00:09:05: 55.00% completed...
2024-06-21 00:09:05: 60.00% completed...
2024-06-21 00:09:05: 65.00% completed...
2024-06-21 00:09:05: 70.00% completed...
2024-06-21 00:09:05: 75.00% completed...
2024-06-21 00:09:05: 80.00% completed...
2024-06-21 00:09:05: 85.00% completed...
2024-06-21 00:09:05: 90.00% completed...
2024-06-21 00:09:05: 95.00% completed...
2024-06-21 00:09:05: 100.00% completed.
2024-06-21 00:09:05: End of calculation.
2024-06-21 00:09:05: Total calculation time: 567 ms.

ERROR:__main__:Command error: 
INFO:__main__: --- METHOD: Unrooted Matching Split --- 
INFO:__main__:Host-Microbe Score:   7.0
INFO:__main__:Max Stochastic Metric: 10.0
INFO:__main__:Normalized Score: 0.7
INFO:__main__:Random Trees with Equivalent or More Congruent Score: 5131
INFO:__main__:Total Trees: 10000
INFO:__main__:P-Value: 0.5131

