INFO:__main__:Running command: java -jar "C:/Users/aleja/Downloads/TreeCmp_v1.0-b291/TreeCmp/bin/TreeCmp.jar" -r "C:/Users/aleja/OneDrive - Karolinska Institutet/Documentos/JOBS/Liquenes/Lichens_project/Sticta/co-divergence/Reviewed\ht.newick" -d rc -i "C:/Users/aleja/OneDrive - Karolinska Institutet/Documentos/JOBS/Liquenes/Lichens_project/Sticta/co-divergence/Reviewed\mt.newick" -o "C:/Users/aleja/OneDrive - Karolinska Institutet/Documentos/JOBS/Liquenes/Lichens_project/Sticta/co-divergence/Reviewed\compare_rc\compare_ht_mt.txt" -N
INFO:__main__:Command output: TreeCmp version 1.0-b291

Active options:
Type of the analysis:  one-to-all comparison mode (-r)
Metrics:
  1. R-F_Cluster (rc)
Input file: C:/Users/aleja/OneDrive - Karolinska Institutet/Documentos/JOBS/Liquenes/Lichens_project/Sticta/co-divergence/Reviewed\mt.newick
Output file: C:/Users/aleja/OneDrive - Karolinska Institutet/Documentos/JOBS/Liquenes/Lichens_project/Sticta/co-divergence/Reviewed\compare_rc\compare_ht_mt.txt
Additional options:
N - Report normalized distances.
-----
2024-06-21 07:05:27: Start of reading random statistics.
2024-06-21 07:05:27: End of reading random statistics.
2024-06-21 07:05:27: Start of scanning input file: C:/Users/aleja/OneDrive - Karolinska Institutet/Documentos/JOBS/Liquenes/Lichens_project/Sticta/co-divergence/Reviewed\mt.newick
2024-06-21 07:05:27: End of scanning input file: C:/Users/aleja/OneDrive - Karolinska Institutet/Documentos/JOBS/Liquenes/Lichens_project/Sticta/co-divergence/Reviewed\mt.newick
2024-06-21 07:05:27: 1 valid trees found in file: C:/Users/aleja/OneDrive - Karolinska Institutet/Documentos/JOBS/Liquenes/Lichens_project/Sticta/co-divergence/Reviewed\mt.newick
2024-06-21 07:05:27: Start of calculation...please wait...
2024-06-21 07:05:27: 0.00% completed...
2024-06-21 07:05:27: 100.00% completed.
2024-06-21 07:05:27: End of calculation.
2024-06-21 07:05:27: Total calculation time: 18 ms.

ERROR:__main__:Command error: 
INFO:__main__:Running command: java -jar "C:/Users/aleja/Downloads/TreeCmp_v1.0-b291/TreeCmp/bin/TreeCmp.jar" -r "C:/Users/aleja/OneDrive - Karolinska Institutet/Documentos/JOBS/Liquenes/Lichens_project/Sticta/co-divergence/Reviewed\ht.newick" -d rc -i "C:/Users/aleja/OneDrive - Karolinska Institutet/Documentos/JOBS/Liquenes/Lichens_project/Sticta/co-divergence/Reviewed\random_trees.newick" -o "C:/Users/aleja/OneDrive - Karolinska Institutet/Documentos/JOBS/Liquenes/Lichens_project/Sticta/co-divergence/Reviewed\compare_rc\compare_ht_random.txt" -N
INFO:__main__:Command output: TreeCmp version 1.0-b291

Active options:
Type of the analysis:  one-to-all comparison mode (-r)
Metrics:
  1. R-F_Cluster (rc)
Input file: C:/Users/aleja/OneDrive - Karolinska Institutet/Documentos/JOBS/Liquenes/Lichens_project/Sticta/co-divergence/Reviewed\random_trees.newick
Output file: C:/Users/aleja/OneDrive - Karolinska Institutet/Documentos/JOBS/Liquenes/Lichens_project/Sticta/co-divergence/Reviewed\compare_rc\compare_ht_random.txt
Additional options:
N - Report normalized distances.
-----
2024-06-21 07:05:27: Start of reading random statistics.
2024-06-21 07:05:27: End of reading random statistics.
2024-06-21 07:05:27: Start of scanning input file: C:/Users/aleja/OneDrive - Karolinska Institutet/Documentos/JOBS/Liquenes/Lichens_project/Sticta/co-divergence/Reviewed\random_trees.newick
2024-06-21 07:05:27: End of scanning input file: C:/Users/aleja/OneDrive - Karolinska Institutet/Documentos/JOBS/Liquenes/Lichens_project/Sticta/co-divergence/Reviewed\random_trees.newick
2024-06-21 07:05:27: 10000 valid trees found in file: C:/Users/aleja/OneDrive - Karolinska Institutet/Documentos/JOBS/Liquenes/Lichens_project/Sticta/co-divergence/Reviewed\random_trees.newick
2024-06-21 07:05:27: Start of calculation...please wait...
2024-06-21 07:05:27: 0.00% completed...
2024-06-21 07:05:27: 5.00% completed...
2024-06-21 07:05:27: 10.00% completed...
2024-06-21 07:05:28: 15.00% completed...
2024-06-21 07:05:28: 20.00% completed...
2024-06-21 07:05:28: 25.00% completed...
2024-06-21 07:05:28: 30.00% completed...
2024-06-21 07:05:28: 35.00% completed...
2024-06-21 07:05:28: 40.00% completed...
2024-06-21 07:05:28: 45.00% completed...
2024-06-21 07:05:28: 50.00% completed...
2024-06-21 07:05:28: 55.00% completed...
2024-06-21 07:05:28: 60.00% completed...
2024-06-21 07:05:28: 65.00% completed...
2024-06-21 07:05:28: 70.00% completed...
2024-06-21 07:05:28: 75.00% completed...
2024-06-21 07:05:28: 80.00% completed...
2024-06-21 07:05:28: 85.00% completed...
2024-06-21 07:05:28: 90.00% completed...
2024-06-21 07:05:28: 95.00% completed...
2024-06-21 07:05:28: 100.00% completed.
2024-06-21 07:05:28: End of calculation.
2024-06-21 07:05:28: Total calculation time: 394 ms.

ERROR:__main__:Command error: 
INFO:__main__: --- METHOD: Rooted Robinson-Foulds --- 
INFO:__main__:Host-Microbe Score:   3.5
INFO:__main__:Max Stochastic Metric: 4.5
INFO:__main__:Normalized Score: 0.7777777777777778
INFO:__main__:Random Trees with Equivalent or More Congruent Score: 3090
INFO:__main__:Total Trees: 10000
INFO:__main__:P-Value: 0.309

INFO:__main__:Running command: java -jar "C:/Users/aleja/Downloads/TreeCmp_v1.0-b291/TreeCmp/bin/TreeCmp.jar" -r "C:/Users/aleja/OneDrive - Karolinska Institutet/Documentos/JOBS/Liquenes/Lichens_project/Sticta/co-divergence/Reviewed\ht.newick" -d mc -i "C:/Users/aleja/OneDrive - Karolinska Institutet/Documentos/JOBS/Liquenes/Lichens_project/Sticta/co-divergence/Reviewed\mt.newick" -o "C:/Users/aleja/OneDrive - Karolinska Institutet/Documentos/JOBS/Liquenes/Lichens_project/Sticta/co-divergence/Reviewed\compare_mc\compare_ht_mt.txt" -N
INFO:__main__:Command output: TreeCmp version 1.0-b291

Active options:
Type of the analysis:  one-to-all comparison mode (-r)
Metrics:
  1. MatchingCluster (mc)
Input file: C:/Users/aleja/OneDrive - Karolinska Institutet/Documentos/JOBS/Liquenes/Lichens_project/Sticta/co-divergence/Reviewed\mt.newick
Output file: C:/Users/aleja/OneDrive - Karolinska Institutet/Documentos/JOBS/Liquenes/Lichens_project/Sticta/co-divergence/Reviewed\compare_mc\compare_ht_mt.txt
Additional options:
N - Report normalized distances.
-----
2024-06-21 07:05:28: Start of reading random statistics.
2024-06-21 07:05:28: End of reading random statistics.
2024-06-21 07:05:28: Start of scanning input file: C:/Users/aleja/OneDrive - Karolinska Institutet/Documentos/JOBS/Liquenes/Lichens_project/Sticta/co-divergence/Reviewed\mt.newick
2024-06-21 07:05:28: End of scanning input file: C:/Users/aleja/OneDrive - Karolinska Institutet/Documentos/JOBS/Liquenes/Lichens_project/Sticta/co-divergence/Reviewed\mt.newick
2024-06-21 07:05:28: 1 valid trees found in file: C:/Users/aleja/OneDrive - Karolinska Institutet/Documentos/JOBS/Liquenes/Lichens_project/Sticta/co-divergence/Reviewed\mt.newick
2024-06-21 07:05:28: Start of calculation...please wait...
2024-06-21 07:05:28: 0.00% completed...
2024-06-21 07:05:28: 100.00% completed.
2024-06-21 07:05:28: End of calculation.
2024-06-21 07:05:28: Total calculation time: 16 ms.

ERROR:__main__:Command error: 
INFO:__main__:Running command: java -jar "C:/Users/aleja/Downloads/TreeCmp_v1.0-b291/TreeCmp/bin/TreeCmp.jar" -r "C:/Users/aleja/OneDrive - Karolinska Institutet/Documentos/JOBS/Liquenes/Lichens_project/Sticta/co-divergence/Reviewed\ht.newick" -d mc -i "C:/Users/aleja/OneDrive - Karolinska Institutet/Documentos/JOBS/Liquenes/Lichens_project/Sticta/co-divergence/Reviewed\random_trees.newick" -o "C:/Users/aleja/OneDrive - Karolinska Institutet/Documentos/JOBS/Liquenes/Lichens_project/Sticta/co-divergence/Reviewed\compare_mc\compare_ht_random.txt" -N
INFO:__main__:Command output: TreeCmp version 1.0-b291

Active options:
Type of the analysis:  one-to-all comparison mode (-r)
Metrics:
  1. MatchingCluster (mc)
Input file: C:/Users/aleja/OneDrive - Karolinska Institutet/Documentos/JOBS/Liquenes/Lichens_project/Sticta/co-divergence/Reviewed\random_trees.newick
Output file: C:/Users/aleja/OneDrive - Karolinska Institutet/Documentos/JOBS/Liquenes/Lichens_project/Sticta/co-divergence/Reviewed\compare_mc\compare_ht_random.txt
Additional options:
N - Report normalized distances.
-----
2024-06-21 07:05:28: Start of reading random statistics.
2024-06-21 07:05:28: End of reading random statistics.
2024-06-21 07:05:28: Start of scanning input file: C:/Users/aleja/OneDrive - Karolinska Institutet/Documentos/JOBS/Liquenes/Lichens_project/Sticta/co-divergence/Reviewed\random_trees.newick
2024-06-21 07:05:29: End of scanning input file: C:/Users/aleja/OneDrive - Karolinska Institutet/Documentos/JOBS/Liquenes/Lichens_project/Sticta/co-divergence/Reviewed\random_trees.newick
2024-06-21 07:05:29: 10000 valid trees found in file: C:/Users/aleja/OneDrive - Karolinska Institutet/Documentos/JOBS/Liquenes/Lichens_project/Sticta/co-divergence/Reviewed\random_trees.newick
2024-06-21 07:05:29: Start of calculation...please wait...
2024-06-21 07:05:29: 0.00% completed...
2024-06-21 07:05:29: 5.00% completed...
2024-06-21 07:05:29: 10.00% completed...
2024-06-21 07:05:29: 15.00% completed...
2024-06-21 07:05:29: 20.00% completed...
2024-06-21 07:05:29: 25.00% completed...
2024-06-21 07:05:29: 30.00% completed...
2024-06-21 07:05:29: 35.00% completed...
2024-06-21 07:05:29: 40.00% completed...
2024-06-21 07:05:29: 45.00% completed...
2024-06-21 07:05:29: 50.00% completed...
2024-06-21 07:05:29: 55.00% completed...
2024-06-21 07:05:29: 60.00% completed...
2024-06-21 07:05:29: 65.00% completed...
2024-06-21 07:05:29: 70.00% completed...
2024-06-21 07:05:29: 75.00% completed...
2024-06-21 07:05:29: 80.00% completed...
2024-06-21 07:05:29: 85.00% completed...
2024-06-21 07:05:29: 90.00% completed...
2024-06-21 07:05:29: 95.00% completed...
2024-06-21 07:05:29: 100.00% completed.
2024-06-21 07:05:29: End of calculation.
2024-06-21 07:05:29: Total calculation time: 572 ms.

ERROR:__main__:Command error: 
INFO:__main__: --- METHOD: Rooted Matching Cluster --- 
INFO:__main__:Host-Microbe Score:   9.0
INFO:__main__:Max Stochastic Metric: 16.0
INFO:__main__:Normalized Score: 0.5625
INFO:__main__:Random Trees with Equivalent or More Congruent Score: 1805
INFO:__main__:Total Trees: 10000
INFO:__main__:P-Value: 0.1805

INFO:__main__:Running command: java -jar "C:/Users/aleja/Downloads/TreeCmp_v1.0-b291/TreeCmp/bin/TreeCmp.jar" -r "C:/Users/aleja/OneDrive - Karolinska Institutet/Documentos/JOBS/Liquenes/Lichens_project/Sticta/co-divergence/Reviewed\ht.newick" -d rf -i "C:/Users/aleja/OneDrive - Karolinska Institutet/Documentos/JOBS/Liquenes/Lichens_project/Sticta/co-divergence/Reviewed\mt.newick" -o "C:/Users/aleja/OneDrive - Karolinska Institutet/Documentos/JOBS/Liquenes/Lichens_project/Sticta/co-divergence/Reviewed\compare_rf\compare_ht_mt.txt" -N
INFO:__main__:Command output: TreeCmp version 1.0-b291

Active options:
Type of the analysis:  one-to-all comparison mode (-r)
Metrics:
  1. R-F (rf)
Input file: C:/Users/aleja/OneDrive - Karolinska Institutet/Documentos/JOBS/Liquenes/Lichens_project/Sticta/co-divergence/Reviewed\mt.newick
Output file: C:/Users/aleja/OneDrive - Karolinska Institutet/Documentos/JOBS/Liquenes/Lichens_project/Sticta/co-divergence/Reviewed\compare_rf\compare_ht_mt.txt
Additional options:
N - Report normalized distances.
-----
2024-06-21 07:05:30: Start of reading random statistics.
2024-06-21 07:05:30: End of reading random statistics.
2024-06-21 07:05:30: Start of scanning input file: C:/Users/aleja/OneDrive - Karolinska Institutet/Documentos/JOBS/Liquenes/Lichens_project/Sticta/co-divergence/Reviewed\mt.newick
2024-06-21 07:05:30: End of scanning input file: C:/Users/aleja/OneDrive - Karolinska Institutet/Documentos/JOBS/Liquenes/Lichens_project/Sticta/co-divergence/Reviewed\mt.newick
2024-06-21 07:05:30: 1 valid trees found in file: C:/Users/aleja/OneDrive - Karolinska Institutet/Documentos/JOBS/Liquenes/Lichens_project/Sticta/co-divergence/Reviewed\mt.newick
2024-06-21 07:05:30: Start of calculation...please wait...
2024-06-21 07:05:30: 0.00% completed...
2024-06-21 07:05:30: 100.00% completed.
2024-06-21 07:05:30: End of calculation.
2024-06-21 07:05:30: Total calculation time: 25 ms.

ERROR:__main__:Command error: 
INFO:__main__:Running command: java -jar "C:/Users/aleja/Downloads/TreeCmp_v1.0-b291/TreeCmp/bin/TreeCmp.jar" -r "C:/Users/aleja/OneDrive - Karolinska Institutet/Documentos/JOBS/Liquenes/Lichens_project/Sticta/co-divergence/Reviewed\ht.newick" -d rf -i "C:/Users/aleja/OneDrive - Karolinska Institutet/Documentos/JOBS/Liquenes/Lichens_project/Sticta/co-divergence/Reviewed\random_trees.newick" -o "C:/Users/aleja/OneDrive - Karolinska Institutet/Documentos/JOBS/Liquenes/Lichens_project/Sticta/co-divergence/Reviewed\compare_rf\compare_ht_random.txt" -N
INFO:__main__:Command output: TreeCmp version 1.0-b291

Active options:
Type of the analysis:  one-to-all comparison mode (-r)
Metrics:
  1. R-F (rf)
Input file: C:/Users/aleja/OneDrive - Karolinska Institutet/Documentos/JOBS/Liquenes/Lichens_project/Sticta/co-divergence/Reviewed\random_trees.newick
Output file: C:/Users/aleja/OneDrive - Karolinska Institutet/Documentos/JOBS/Liquenes/Lichens_project/Sticta/co-divergence/Reviewed\compare_rf\compare_ht_random.txt
Additional options:
N - Report normalized distances.
-----
2024-06-21 07:05:30: Start of reading random statistics.
2024-06-21 07:05:30: End of reading random statistics.
2024-06-21 07:05:30: Start of scanning input file: C:/Users/aleja/OneDrive - Karolinska Institutet/Documentos/JOBS/Liquenes/Lichens_project/Sticta/co-divergence/Reviewed\random_trees.newick
2024-06-21 07:05:30: End of scanning input file: C:/Users/aleja/OneDrive - Karolinska Institutet/Documentos/JOBS/Liquenes/Lichens_project/Sticta/co-divergence/Reviewed\random_trees.newick
2024-06-21 07:05:30: 10000 valid trees found in file: C:/Users/aleja/OneDrive - Karolinska Institutet/Documentos/JOBS/Liquenes/Lichens_project/Sticta/co-divergence/Reviewed\random_trees.newick
2024-06-21 07:05:30: Start of calculation...please wait...
2024-06-21 07:05:30: 0.00% completed...
2024-06-21 07:05:30: 5.00% completed...
2024-06-21 07:05:30: 10.00% completed...
2024-06-21 07:05:30: 15.00% completed...
2024-06-21 07:05:30: 20.00% completed...
2024-06-21 07:05:30: 25.00% completed...
2024-06-21 07:05:30: 30.00% completed...
2024-06-21 07:05:30: 35.00% completed...
2024-06-21 07:05:30: 40.00% completed...
2024-06-21 07:05:30: 45.00% completed...
2024-06-21 07:05:30: 50.00% completed...
2024-06-21 07:05:30: 55.00% completed...
2024-06-21 07:05:30: 60.00% completed...
2024-06-21 07:05:30: 65.00% completed...
2024-06-21 07:05:30: 70.00% completed...
2024-06-21 07:05:30: 75.00% completed...
2024-06-21 07:05:30: 80.00% completed...
2024-06-21 07:05:30: 85.00% completed...
2024-06-21 07:05:30: 90.00% completed...
2024-06-21 07:05:31: 95.00% completed...
2024-06-21 07:05:31: 100.00% completed.
2024-06-21 07:05:31: End of calculation.
2024-06-21 07:05:31: Total calculation time: 432 ms.

ERROR:__main__:Command error: 
INFO:__main__: --- METHOD: Unrooted Robinson-Foulds --- 
INFO:__main__:Host-Microbe Score:   3.0
INFO:__main__:Max Stochastic Metric: 4.0
INFO:__main__:Normalized Score: 0.75
INFO:__main__:Random Trees with Equivalent or More Congruent Score: 3245
INFO:__main__:Total Trees: 10000
INFO:__main__:P-Value: 0.3245

INFO:__main__:Running command: java -jar "C:/Users/aleja/Downloads/TreeCmp_v1.0-b291/TreeCmp/bin/TreeCmp.jar" -r "C:/Users/aleja/OneDrive - Karolinska Institutet/Documentos/JOBS/Liquenes/Lichens_project/Sticta/co-divergence/Reviewed\ht.newick" -d ms -i "C:/Users/aleja/OneDrive - Karolinska Institutet/Documentos/JOBS/Liquenes/Lichens_project/Sticta/co-divergence/Reviewed\mt.newick" -o "C:/Users/aleja/OneDrive - Karolinska Institutet/Documentos/JOBS/Liquenes/Lichens_project/Sticta/co-divergence/Reviewed\compare_ms\compare_ht_mt.txt" -N
INFO:__main__:Command output: TreeCmp version 1.0-b291

Active options:
Type of the analysis:  one-to-all comparison mode (-r)
Metrics:
  1. MatchingSplit (ms)
Input file: C:/Users/aleja/OneDrive - Karolinska Institutet/Documentos/JOBS/Liquenes/Lichens_project/Sticta/co-divergence/Reviewed\mt.newick
Output file: C:/Users/aleja/OneDrive - Karolinska Institutet/Documentos/JOBS/Liquenes/Lichens_project/Sticta/co-divergence/Reviewed\compare_ms\compare_ht_mt.txt
Additional options:
N - Report normalized distances.
-----
2024-06-21 07:05:31: Start of reading random statistics.
2024-06-21 07:05:31: End of reading random statistics.
2024-06-21 07:05:31: Start of scanning input file: C:/Users/aleja/OneDrive - Karolinska Institutet/Documentos/JOBS/Liquenes/Lichens_project/Sticta/co-divergence/Reviewed\mt.newick
2024-06-21 07:05:31: End of scanning input file: C:/Users/aleja/OneDrive - Karolinska Institutet/Documentos/JOBS/Liquenes/Lichens_project/Sticta/co-divergence/Reviewed\mt.newick
2024-06-21 07:05:31: 1 valid trees found in file: C:/Users/aleja/OneDrive - Karolinska Institutet/Documentos/JOBS/Liquenes/Lichens_project/Sticta/co-divergence/Reviewed\mt.newick
2024-06-21 07:05:31: Start of calculation...please wait...
2024-06-21 07:05:31: 0.00% completed...
2024-06-21 07:05:31: 100.00% completed.
2024-06-21 07:05:31: End of calculation.
2024-06-21 07:05:31: Total calculation time: 26 ms.

ERROR:__main__:Command error: 
INFO:__main__:Running command: java -jar "C:/Users/aleja/Downloads/TreeCmp_v1.0-b291/TreeCmp/bin/TreeCmp.jar" -r "C:/Users/aleja/OneDrive - Karolinska Institutet/Documentos/JOBS/Liquenes/Lichens_project/Sticta/co-divergence/Reviewed\ht.newick" -d ms -i "C:/Users/aleja/OneDrive - Karolinska Institutet/Documentos/JOBS/Liquenes/Lichens_project/Sticta/co-divergence/Reviewed\random_trees.newick" -o "C:/Users/aleja/OneDrive - Karolinska Institutet/Documentos/JOBS/Liquenes/Lichens_project/Sticta/co-divergence/Reviewed\compare_ms\compare_ht_random.txt" -N
INFO:__main__:Command output: TreeCmp version 1.0-b291

Active options:
Type of the analysis:  one-to-all comparison mode (-r)
Metrics:
  1. MatchingSplit (ms)
Input file: C:/Users/aleja/OneDrive - Karolinska Institutet/Documentos/JOBS/Liquenes/Lichens_project/Sticta/co-divergence/Reviewed\random_trees.newick
Output file: C:/Users/aleja/OneDrive - Karolinska Institutet/Documentos/JOBS/Liquenes/Lichens_project/Sticta/co-divergence/Reviewed\compare_ms\compare_ht_random.txt
Additional options:
N - Report normalized distances.
-----
2024-06-21 07:05:31: Start of reading random statistics.
2024-06-21 07:05:31: End of reading random statistics.
2024-06-21 07:05:31: Start of scanning input file: C:/Users/aleja/OneDrive - Karolinska Institutet/Documentos/JOBS/Liquenes/Lichens_project/Sticta/co-divergence/Reviewed\random_trees.newick
2024-06-21 07:05:31: End of scanning input file: C:/Users/aleja/OneDrive - Karolinska Institutet/Documentos/JOBS/Liquenes/Lichens_project/Sticta/co-divergence/Reviewed\random_trees.newick
2024-06-21 07:05:31: 10000 valid trees found in file: C:/Users/aleja/OneDrive - Karolinska Institutet/Documentos/JOBS/Liquenes/Lichens_project/Sticta/co-divergence/Reviewed\random_trees.newick
2024-06-21 07:05:31: Start of calculation...please wait...
2024-06-21 07:05:31: 0.00% completed...
2024-06-21 07:05:31: 5.00% completed...
2024-06-21 07:05:31: 10.00% completed...
2024-06-21 07:05:32: 15.00% completed...
2024-06-21 07:05:32: 20.00% completed...
2024-06-21 07:05:32: 25.00% completed...
2024-06-21 07:05:32: 30.00% completed...
2024-06-21 07:05:32: 35.00% completed...
2024-06-21 07:05:32: 40.00% completed...
2024-06-21 07:05:32: 45.00% completed...
2024-06-21 07:05:32: 50.00% completed...
2024-06-21 07:05:32: 55.00% completed...
2024-06-21 07:05:32: 60.00% completed...
2024-06-21 07:05:32: 65.00% completed...
2024-06-21 07:05:32: 70.00% completed...
2024-06-21 07:05:32: 75.00% completed...
2024-06-21 07:05:32: 80.00% completed...
2024-06-21 07:05:32: 85.00% completed...
2024-06-21 07:05:32: 90.00% completed...
2024-06-21 07:05:32: 95.00% completed...
2024-06-21 07:05:32: 100.00% completed.
2024-06-21 07:05:32: End of calculation.
2024-06-21 07:05:32: Total calculation time: 561 ms.

ERROR:__main__:Command error: 
INFO:__main__: --- METHOD: Unrooted Matching Split --- 
INFO:__main__:Host-Microbe Score:   6.0
INFO:__main__:Max Stochastic Metric: 10.0
INFO:__main__:Normalized Score: 0.6
INFO:__main__:Random Trees with Equivalent or More Congruent Score: 2899
INFO:__main__:Total Trees: 10000
INFO:__main__:P-Value: 0.2899

