INFO:__main__:Running command: java -jar "C:/Users/aleja/Downloads/TreeCmp_v1.0-b291/TreeCmp/bin/TreeCmp.jar" -r "C:/Users/aleja/OneDrive - Karolinska Institutet/Documentos/JOBS/Liquenes/Lichens_project/Sticta/co-divergence/Reviewed\ht.newick" -d rc -i "C:/Users/aleja/OneDrive - Karolinska Institutet/Documentos/JOBS/Liquenes/Lichens_project/Sticta/co-divergence/Reviewed\mt.newick" -o "C:/Users/aleja/OneDrive - Karolinska Institutet/Documentos/JOBS/Liquenes/Lichens_project/Sticta/co-divergence/Reviewed\compare_rc\compare_ht_mt.txt" -N
INFO:__main__:Command output: TreeCmp version 1.0-b291

Active options:
Type of the analysis:  one-to-all comparison mode (-r)
Metrics:
  1. R-F_Cluster (rc)
Input file: C:/Users/aleja/OneDrive - Karolinska Institutet/Documentos/JOBS/Liquenes/Lichens_project/Sticta/co-divergence/Reviewed\mt.newick
Output file: C:/Users/aleja/OneDrive - Karolinska Institutet/Documentos/JOBS/Liquenes/Lichens_project/Sticta/co-divergence/Reviewed\compare_rc\compare_ht_mt.txt
Additional options:
N - Report normalized distances.
-----
2024-06-21 08:13:24: Start of reading random statistics.
2024-06-21 08:13:24: End of reading random statistics.
2024-06-21 08:13:24: Start of scanning input file: C:/Users/aleja/OneDrive - Karolinska Institutet/Documentos/JOBS/Liquenes/Lichens_project/Sticta/co-divergence/Reviewed\mt.newick
2024-06-21 08:13:24: End of scanning input file: C:/Users/aleja/OneDrive - Karolinska Institutet/Documentos/JOBS/Liquenes/Lichens_project/Sticta/co-divergence/Reviewed\mt.newick
2024-06-21 08:13:24: 1 valid trees found in file: C:/Users/aleja/OneDrive - Karolinska Institutet/Documentos/JOBS/Liquenes/Lichens_project/Sticta/co-divergence/Reviewed\mt.newick
2024-06-21 08:13:24: Start of calculation...please wait...
2024-06-21 08:13:24: 0.00% completed...
2024-06-21 08:13:24: 100.00% completed.
2024-06-21 08:13:24: End of calculation.
2024-06-21 08:13:24: Total calculation time: 9 ms.

ERROR:__main__:Command error: 
INFO:__main__:Running command: java -jar "C:/Users/aleja/Downloads/TreeCmp_v1.0-b291/TreeCmp/bin/TreeCmp.jar" -r "C:/Users/aleja/OneDrive - Karolinska Institutet/Documentos/JOBS/Liquenes/Lichens_project/Sticta/co-divergence/Reviewed\ht.newick" -d rc -i "C:/Users/aleja/OneDrive - Karolinska Institutet/Documentos/JOBS/Liquenes/Lichens_project/Sticta/co-divergence/Reviewed\random_trees.newick" -o "C:/Users/aleja/OneDrive - Karolinska Institutet/Documentos/JOBS/Liquenes/Lichens_project/Sticta/co-divergence/Reviewed\compare_rc\compare_ht_random.txt" -N
INFO:__main__:Command output: TreeCmp version 1.0-b291

Active options:
Type of the analysis:  one-to-all comparison mode (-r)
Metrics:
  1. R-F_Cluster (rc)
Input file: C:/Users/aleja/OneDrive - Karolinska Institutet/Documentos/JOBS/Liquenes/Lichens_project/Sticta/co-divergence/Reviewed\random_trees.newick
Output file: C:/Users/aleja/OneDrive - Karolinska Institutet/Documentos/JOBS/Liquenes/Lichens_project/Sticta/co-divergence/Reviewed\compare_rc\compare_ht_random.txt
Additional options:
N - Report normalized distances.
-----
2024-06-21 08:13:24: Start of reading random statistics.
2024-06-21 08:13:24: End of reading random statistics.
2024-06-21 08:13:24: Start of scanning input file: C:/Users/aleja/OneDrive - Karolinska Institutet/Documentos/JOBS/Liquenes/Lichens_project/Sticta/co-divergence/Reviewed\random_trees.newick
2024-06-21 08:13:24: End of scanning input file: C:/Users/aleja/OneDrive - Karolinska Institutet/Documentos/JOBS/Liquenes/Lichens_project/Sticta/co-divergence/Reviewed\random_trees.newick
2024-06-21 08:13:24: 10000 valid trees found in file: C:/Users/aleja/OneDrive - Karolinska Institutet/Documentos/JOBS/Liquenes/Lichens_project/Sticta/co-divergence/Reviewed\random_trees.newick
2024-06-21 08:13:24: Start of calculation...please wait...
2024-06-21 08:13:24: 0.00% completed...
2024-06-21 08:13:25: 5.00% completed...
2024-06-21 08:13:25: 10.00% completed...
2024-06-21 08:13:25: 15.00% completed...
2024-06-21 08:13:25: 20.00% completed...
2024-06-21 08:13:25: 25.00% completed...
2024-06-21 08:13:25: 30.00% completed...
2024-06-21 08:13:25: 35.00% completed...
2024-06-21 08:13:25: 40.00% completed...
2024-06-21 08:13:25: 45.00% completed...
2024-06-21 08:13:25: 50.00% completed...
2024-06-21 08:13:25: 55.00% completed...
2024-06-21 08:13:25: 60.00% completed...
2024-06-21 08:13:25: 65.00% completed...
2024-06-21 08:13:25: 70.00% completed...
2024-06-21 08:13:25: 75.00% completed...
2024-06-21 08:13:25: 80.00% completed...
2024-06-21 08:13:25: 85.00% completed...
2024-06-21 08:13:25: 90.00% completed...
2024-06-21 08:13:25: 95.00% completed...
2024-06-21 08:13:25: 100.00% completed.
2024-06-21 08:13:25: End of calculation.
2024-06-21 08:13:25: Total calculation time: 578 ms.

ERROR:__main__:Command error: 
INFO:__main__: --- METHOD: Rooted Robinson-Foulds --- 
INFO:__main__:Host-Microbe Score:   4.5
INFO:__main__:Max Stochastic Metric: 4.5
INFO:__main__:Normalized Score: 1.0
INFO:__main__:Random Trees with Equivalent or More Congruent Score: 10000
INFO:__main__:Total Trees: 10000
INFO:__main__:P-Value: 1.0

INFO:__main__:Running command: java -jar "C:/Users/aleja/Downloads/TreeCmp_v1.0-b291/TreeCmp/bin/TreeCmp.jar" -r "C:/Users/aleja/OneDrive - Karolinska Institutet/Documentos/JOBS/Liquenes/Lichens_project/Sticta/co-divergence/Reviewed\ht.newick" -d mc -i "C:/Users/aleja/OneDrive - Karolinska Institutet/Documentos/JOBS/Liquenes/Lichens_project/Sticta/co-divergence/Reviewed\mt.newick" -o "C:/Users/aleja/OneDrive - Karolinska Institutet/Documentos/JOBS/Liquenes/Lichens_project/Sticta/co-divergence/Reviewed\compare_mc\compare_ht_mt.txt" -N
INFO:__main__:Command output: TreeCmp version 1.0-b291

Active options:
Type of the analysis:  one-to-all comparison mode (-r)
Metrics:
  1. MatchingCluster (mc)
Input file: C:/Users/aleja/OneDrive - Karolinska Institutet/Documentos/JOBS/Liquenes/Lichens_project/Sticta/co-divergence/Reviewed\mt.newick
Output file: C:/Users/aleja/OneDrive - Karolinska Institutet/Documentos/JOBS/Liquenes/Lichens_project/Sticta/co-divergence/Reviewed\compare_mc\compare_ht_mt.txt
Additional options:
N - Report normalized distances.
-----
2024-06-21 08:13:25: Start of reading random statistics.
2024-06-21 08:13:25: End of reading random statistics.
2024-06-21 08:13:25: Start of scanning input file: C:/Users/aleja/OneDrive - Karolinska Institutet/Documentos/JOBS/Liquenes/Lichens_project/Sticta/co-divergence/Reviewed\mt.newick
2024-06-21 08:13:25: End of scanning input file: C:/Users/aleja/OneDrive - Karolinska Institutet/Documentos/JOBS/Liquenes/Lichens_project/Sticta/co-divergence/Reviewed\mt.newick
2024-06-21 08:13:25: 1 valid trees found in file: C:/Users/aleja/OneDrive - Karolinska Institutet/Documentos/JOBS/Liquenes/Lichens_project/Sticta/co-divergence/Reviewed\mt.newick
2024-06-21 08:13:25: Start of calculation...please wait...
2024-06-21 08:13:25: 0.00% completed...
2024-06-21 08:13:25: 100.00% completed.
2024-06-21 08:13:25: End of calculation.
2024-06-21 08:13:25: Total calculation time: 22 ms.

ERROR:__main__:Command error: 
INFO:__main__:Running command: java -jar "C:/Users/aleja/Downloads/TreeCmp_v1.0-b291/TreeCmp/bin/TreeCmp.jar" -r "C:/Users/aleja/OneDrive - Karolinska Institutet/Documentos/JOBS/Liquenes/Lichens_project/Sticta/co-divergence/Reviewed\ht.newick" -d mc -i "C:/Users/aleja/OneDrive - Karolinska Institutet/Documentos/JOBS/Liquenes/Lichens_project/Sticta/co-divergence/Reviewed\random_trees.newick" -o "C:/Users/aleja/OneDrive - Karolinska Institutet/Documentos/JOBS/Liquenes/Lichens_project/Sticta/co-divergence/Reviewed\compare_mc\compare_ht_random.txt" -N
INFO:__main__:Command output: TreeCmp version 1.0-b291

Active options:
Type of the analysis:  one-to-all comparison mode (-r)
Metrics:
  1. MatchingCluster (mc)
Input file: C:/Users/aleja/OneDrive - Karolinska Institutet/Documentos/JOBS/Liquenes/Lichens_project/Sticta/co-divergence/Reviewed\random_trees.newick
Output file: C:/Users/aleja/OneDrive - Karolinska Institutet/Documentos/JOBS/Liquenes/Lichens_project/Sticta/co-divergence/Reviewed\compare_mc\compare_ht_random.txt
Additional options:
N - Report normalized distances.
-----
2024-06-21 08:13:26: Start of reading random statistics.
2024-06-21 08:13:26: End of reading random statistics.
2024-06-21 08:13:26: Start of scanning input file: C:/Users/aleja/OneDrive - Karolinska Institutet/Documentos/JOBS/Liquenes/Lichens_project/Sticta/co-divergence/Reviewed\random_trees.newick
2024-06-21 08:13:26: End of scanning input file: C:/Users/aleja/OneDrive - Karolinska Institutet/Documentos/JOBS/Liquenes/Lichens_project/Sticta/co-divergence/Reviewed\random_trees.newick
2024-06-21 08:13:26: 10000 valid trees found in file: C:/Users/aleja/OneDrive - Karolinska Institutet/Documentos/JOBS/Liquenes/Lichens_project/Sticta/co-divergence/Reviewed\random_trees.newick
2024-06-21 08:13:26: Start of calculation...please wait...
2024-06-21 08:13:26: 0.00% completed...
2024-06-21 08:13:26: 5.00% completed...
2024-06-21 08:13:26: 10.00% completed...
2024-06-21 08:13:26: 15.00% completed...
2024-06-21 08:13:26: 20.00% completed...
2024-06-21 08:13:26: 25.00% completed...
2024-06-21 08:13:26: 30.00% completed...
2024-06-21 08:13:26: 35.00% completed...
2024-06-21 08:13:26: 40.00% completed...
2024-06-21 08:13:26: 45.00% completed...
2024-06-21 08:13:26: 50.00% completed...
2024-06-21 08:13:27: 55.00% completed...
2024-06-21 08:13:27: 60.00% completed...
2024-06-21 08:13:27: 65.00% completed...
2024-06-21 08:13:27: 70.00% completed...
2024-06-21 08:13:27: 75.00% completed...
2024-06-21 08:13:27: 80.00% completed...
2024-06-21 08:13:27: 85.00% completed...
2024-06-21 08:13:27: 90.00% completed...
2024-06-21 08:13:27: 95.00% completed...
2024-06-21 08:13:27: 100.00% completed.
2024-06-21 08:13:27: End of calculation.
2024-06-21 08:13:27: Total calculation time: 658 ms.

ERROR:__main__:Command error: 
INFO:__main__: --- METHOD: Rooted Matching Cluster --- 
INFO:__main__:Host-Microbe Score:   12.0
INFO:__main__:Max Stochastic Metric: 16.0
INFO:__main__:Normalized Score: 0.75
INFO:__main__:Random Trees with Equivalent or More Congruent Score: 7819
INFO:__main__:Total Trees: 10000
INFO:__main__:P-Value: 0.7819

INFO:__main__:Running command: java -jar "C:/Users/aleja/Downloads/TreeCmp_v1.0-b291/TreeCmp/bin/TreeCmp.jar" -r "C:/Users/aleja/OneDrive - Karolinska Institutet/Documentos/JOBS/Liquenes/Lichens_project/Sticta/co-divergence/Reviewed\ht.newick" -d rf -i "C:/Users/aleja/OneDrive - Karolinska Institutet/Documentos/JOBS/Liquenes/Lichens_project/Sticta/co-divergence/Reviewed\mt.newick" -o "C:/Users/aleja/OneDrive - Karolinska Institutet/Documentos/JOBS/Liquenes/Lichens_project/Sticta/co-divergence/Reviewed\compare_rf\compare_ht_mt.txt" -N
INFO:__main__:Command output: TreeCmp version 1.0-b291

Active options:
Type of the analysis:  one-to-all comparison mode (-r)
Metrics:
  1. R-F (rf)
Input file: C:/Users/aleja/OneDrive - Karolinska Institutet/Documentos/JOBS/Liquenes/Lichens_project/Sticta/co-divergence/Reviewed\mt.newick
Output file: C:/Users/aleja/OneDrive - Karolinska Institutet/Documentos/JOBS/Liquenes/Lichens_project/Sticta/co-divergence/Reviewed\compare_rf\compare_ht_mt.txt
Additional options:
N - Report normalized distances.
-----
2024-06-21 08:13:27: Start of reading random statistics.
2024-06-21 08:13:27: End of reading random statistics.
2024-06-21 08:13:27: Start of scanning input file: C:/Users/aleja/OneDrive - Karolinska Institutet/Documentos/JOBS/Liquenes/Lichens_project/Sticta/co-divergence/Reviewed\mt.newick
2024-06-21 08:13:27: End of scanning input file: C:/Users/aleja/OneDrive - Karolinska Institutet/Documentos/JOBS/Liquenes/Lichens_project/Sticta/co-divergence/Reviewed\mt.newick
2024-06-21 08:13:27: 1 valid trees found in file: C:/Users/aleja/OneDrive - Karolinska Institutet/Documentos/JOBS/Liquenes/Lichens_project/Sticta/co-divergence/Reviewed\mt.newick
2024-06-21 08:13:27: Start of calculation...please wait...
2024-06-21 08:13:27: 0.00% completed...
2024-06-21 08:13:27: 100.00% completed.
2024-06-21 08:13:27: End of calculation.
2024-06-21 08:13:27: Total calculation time: 29 ms.

ERROR:__main__:Command error: 
INFO:__main__:Running command: java -jar "C:/Users/aleja/Downloads/TreeCmp_v1.0-b291/TreeCmp/bin/TreeCmp.jar" -r "C:/Users/aleja/OneDrive - Karolinska Institutet/Documentos/JOBS/Liquenes/Lichens_project/Sticta/co-divergence/Reviewed\ht.newick" -d rf -i "C:/Users/aleja/OneDrive - Karolinska Institutet/Documentos/JOBS/Liquenes/Lichens_project/Sticta/co-divergence/Reviewed\random_trees.newick" -o "C:/Users/aleja/OneDrive - Karolinska Institutet/Documentos/JOBS/Liquenes/Lichens_project/Sticta/co-divergence/Reviewed\compare_rf\compare_ht_random.txt" -N
INFO:__main__:Command output: TreeCmp version 1.0-b291

Active options:
Type of the analysis:  one-to-all comparison mode (-r)
Metrics:
  1. R-F (rf)
Input file: C:/Users/aleja/OneDrive - Karolinska Institutet/Documentos/JOBS/Liquenes/Lichens_project/Sticta/co-divergence/Reviewed\random_trees.newick
Output file: C:/Users/aleja/OneDrive - Karolinska Institutet/Documentos/JOBS/Liquenes/Lichens_project/Sticta/co-divergence/Reviewed\compare_rf\compare_ht_random.txt
Additional options:
N - Report normalized distances.
-----
2024-06-21 08:13:27: Start of reading random statistics.
2024-06-21 08:13:27: End of reading random statistics.
2024-06-21 08:13:27: Start of scanning input file: C:/Users/aleja/OneDrive - Karolinska Institutet/Documentos/JOBS/Liquenes/Lichens_project/Sticta/co-divergence/Reviewed\random_trees.newick
2024-06-21 08:13:28: End of scanning input file: C:/Users/aleja/OneDrive - Karolinska Institutet/Documentos/JOBS/Liquenes/Lichens_project/Sticta/co-divergence/Reviewed\random_trees.newick
2024-06-21 08:13:28: 10000 valid trees found in file: C:/Users/aleja/OneDrive - Karolinska Institutet/Documentos/JOBS/Liquenes/Lichens_project/Sticta/co-divergence/Reviewed\random_trees.newick
2024-06-21 08:13:28: Start of calculation...please wait...
2024-06-21 08:13:28: 0.00% completed...
2024-06-21 08:13:28: 5.00% completed...
2024-06-21 08:13:28: 10.00% completed...
2024-06-21 08:13:28: 15.00% completed...
2024-06-21 08:13:28: 20.00% completed...
2024-06-21 08:13:28: 25.00% completed...
2024-06-21 08:13:28: 30.00% completed...
2024-06-21 08:13:28: 35.00% completed...
2024-06-21 08:13:28: 40.00% completed...
2024-06-21 08:13:28: 45.00% completed...
2024-06-21 08:13:28: 50.00% completed...
2024-06-21 08:13:28: 55.00% completed...
2024-06-21 08:13:28: 60.00% completed...
2024-06-21 08:13:28: 65.00% completed...
2024-06-21 08:13:28: 70.00% completed...
2024-06-21 08:13:28: 75.00% completed...
2024-06-21 08:13:28: 80.00% completed...
2024-06-21 08:13:28: 85.00% completed...
2024-06-21 08:13:28: 90.00% completed...
2024-06-21 08:13:28: 95.00% completed...
2024-06-21 08:13:28: 100.00% completed.
2024-06-21 08:13:28: End of calculation.
2024-06-21 08:13:28: Total calculation time: 528 ms.

ERROR:__main__:Command error: 
INFO:__main__: --- METHOD: Unrooted Robinson-Foulds --- 
INFO:__main__:Host-Microbe Score:   4.0
INFO:__main__:Max Stochastic Metric: 4.0
INFO:__main__:Normalized Score: 1.0
INFO:__main__:Random Trees with Equivalent or More Congruent Score: 10000
INFO:__main__:Total Trees: 10000
INFO:__main__:P-Value: 1.0

INFO:__main__:Running command: java -jar "C:/Users/aleja/Downloads/TreeCmp_v1.0-b291/TreeCmp/bin/TreeCmp.jar" -r "C:/Users/aleja/OneDrive - Karolinska Institutet/Documentos/JOBS/Liquenes/Lichens_project/Sticta/co-divergence/Reviewed\ht.newick" -d ms -i "C:/Users/aleja/OneDrive - Karolinska Institutet/Documentos/JOBS/Liquenes/Lichens_project/Sticta/co-divergence/Reviewed\mt.newick" -o "C:/Users/aleja/OneDrive - Karolinska Institutet/Documentos/JOBS/Liquenes/Lichens_project/Sticta/co-divergence/Reviewed\compare_ms\compare_ht_mt.txt" -N
INFO:__main__:Command output: TreeCmp version 1.0-b291

Active options:
Type of the analysis:  one-to-all comparison mode (-r)
Metrics:
  1. MatchingSplit (ms)
Input file: C:/Users/aleja/OneDrive - Karolinska Institutet/Documentos/JOBS/Liquenes/Lichens_project/Sticta/co-divergence/Reviewed\mt.newick
Output file: C:/Users/aleja/OneDrive - Karolinska Institutet/Documentos/JOBS/Liquenes/Lichens_project/Sticta/co-divergence/Reviewed\compare_ms\compare_ht_mt.txt
Additional options:
N - Report normalized distances.
-----
2024-06-21 08:13:29: Start of reading random statistics.
2024-06-21 08:13:29: End of reading random statistics.
2024-06-21 08:13:29: Start of scanning input file: C:/Users/aleja/OneDrive - Karolinska Institutet/Documentos/JOBS/Liquenes/Lichens_project/Sticta/co-divergence/Reviewed\mt.newick
2024-06-21 08:13:29: End of scanning input file: C:/Users/aleja/OneDrive - Karolinska Institutet/Documentos/JOBS/Liquenes/Lichens_project/Sticta/co-divergence/Reviewed\mt.newick
2024-06-21 08:13:29: 1 valid trees found in file: C:/Users/aleja/OneDrive - Karolinska Institutet/Documentos/JOBS/Liquenes/Lichens_project/Sticta/co-divergence/Reviewed\mt.newick
2024-06-21 08:13:29: Start of calculation...please wait...
2024-06-21 08:13:29: 0.00% completed...
2024-06-21 08:13:29: 100.00% completed.
2024-06-21 08:13:29: End of calculation.
2024-06-21 08:13:29: Total calculation time: 29 ms.

ERROR:__main__:Command error: 
INFO:__main__:Running command: java -jar "C:/Users/aleja/Downloads/TreeCmp_v1.0-b291/TreeCmp/bin/TreeCmp.jar" -r "C:/Users/aleja/OneDrive - Karolinska Institutet/Documentos/JOBS/Liquenes/Lichens_project/Sticta/co-divergence/Reviewed\ht.newick" -d ms -i "C:/Users/aleja/OneDrive - Karolinska Institutet/Documentos/JOBS/Liquenes/Lichens_project/Sticta/co-divergence/Reviewed\random_trees.newick" -o "C:/Users/aleja/OneDrive - Karolinska Institutet/Documentos/JOBS/Liquenes/Lichens_project/Sticta/co-divergence/Reviewed\compare_ms\compare_ht_random.txt" -N
INFO:__main__:Command output: TreeCmp version 1.0-b291

Active options:
Type of the analysis:  one-to-all comparison mode (-r)
Metrics:
  1. MatchingSplit (ms)
Input file: C:/Users/aleja/OneDrive - Karolinska Institutet/Documentos/JOBS/Liquenes/Lichens_project/Sticta/co-divergence/Reviewed\random_trees.newick
Output file: C:/Users/aleja/OneDrive - Karolinska Institutet/Documentos/JOBS/Liquenes/Lichens_project/Sticta/co-divergence/Reviewed\compare_ms\compare_ht_random.txt
Additional options:
N - Report normalized distances.
-----
2024-06-21 08:13:29: Start of reading random statistics.
2024-06-21 08:13:29: End of reading random statistics.
2024-06-21 08:13:29: Start of scanning input file: C:/Users/aleja/OneDrive - Karolinska Institutet/Documentos/JOBS/Liquenes/Lichens_project/Sticta/co-divergence/Reviewed\random_trees.newick
2024-06-21 08:13:29: End of scanning input file: C:/Users/aleja/OneDrive - Karolinska Institutet/Documentos/JOBS/Liquenes/Lichens_project/Sticta/co-divergence/Reviewed\random_trees.newick
2024-06-21 08:13:29: 10000 valid trees found in file: C:/Users/aleja/OneDrive - Karolinska Institutet/Documentos/JOBS/Liquenes/Lichens_project/Sticta/co-divergence/Reviewed\random_trees.newick
2024-06-21 08:13:29: Start of calculation...please wait...
2024-06-21 08:13:29: 0.00% completed...
2024-06-21 08:13:29: 5.00% completed...
2024-06-21 08:13:29: 10.00% completed...
2024-06-21 08:13:29: 15.00% completed...
2024-06-21 08:13:29: 20.00% completed...
2024-06-21 08:13:29: 25.00% completed...
2024-06-21 08:13:30: 30.00% completed...
2024-06-21 08:13:30: 35.00% completed...
2024-06-21 08:13:30: 40.00% completed...
2024-06-21 08:13:30: 45.00% completed...
2024-06-21 08:13:30: 50.00% completed...
2024-06-21 08:13:30: 55.00% completed...
2024-06-21 08:13:30: 60.00% completed...
2024-06-21 08:13:30: 65.00% completed...
2024-06-21 08:13:30: 70.00% completed...
2024-06-21 08:13:30: 75.00% completed...
2024-06-21 08:13:30: 80.00% completed...
2024-06-21 08:13:30: 85.00% completed...
2024-06-21 08:13:30: 90.00% completed...
2024-06-21 08:13:30: 95.00% completed...
2024-06-21 08:13:30: 100.00% completed.
2024-06-21 08:13:30: End of calculation.
2024-06-21 08:13:30: Total calculation time: 681 ms.

ERROR:__main__:Command error: 
INFO:__main__: --- METHOD: Unrooted Matching Split --- 
INFO:__main__:Host-Microbe Score:   7.0
INFO:__main__:Max Stochastic Metric: 10.0
INFO:__main__:Normalized Score: 0.7
INFO:__main__:Random Trees with Equivalent or More Congruent Score: 5118
INFO:__main__:Total Trees: 10000
INFO:__main__:P-Value: 0.5118

